REMARK  11 active torsions:
REMARK  status: ('A' for Active; 'I' for Inactive)
REMARK    1  A    between atoms: O_2  and  C_17 
REMARK    2  A    between atoms: O_2  and  C_19 
REMARK    3  A    between atoms: O_3  and  C_13 
REMARK    4  A    between atoms: O_4  and  C_14 
REMARK    5  A    between atoms: O_5  and  C_15 
REMARK    6  A    between atoms: O_6  and  C_18 
REMARK    7  A    between atoms: O_8  and  C_21 
REMARK    8  A    between atoms: O_11  and  C_30 
REMARK    9  A    between atoms: O_12  and  C_33 
REMARK   10  A    between atoms: C_16  and  C_18 
REMARK   11  A    between atoms: C_22  and  C_25 
ROOT
ATOM      1  C   UNK d   1       0.010 -23.468   0.082  0.00  0.00     0.106 A 
ATOM      2  C   UNK d   1      -0.471 -24.790   0.158  0.00  0.00     0.054 A 
ATOM      3  C   UNK d   1       0.869 -22.989   1.086  0.00  0.00     0.101 A 
ATOM      4  C   UNK d   1      -0.164 -25.639   1.239  0.00  0.00     0.001 A 
ATOM      5  C   UNK d   1       1.200 -23.827   2.152  0.00  0.00     0.040 A 
ATOM      6  C   UNK d   1       0.683 -25.125   2.230  0.00  0.00     0.017 A 
ENDROOT
BRANCH   1   7
ATOM      7  O   UNK d   1      -0.311 -22.578  -0.919  0.00  0.00    -0.315 OA
BRANCH   7   8
ATOM      8  C   UNK d   1       0.149 -22.863  -2.243  0.00  0.00     0.299 C 
ATOM      9  O   UNK d   1      -0.333 -24.146  -2.650  0.00  0.00    -0.340 OA
ATOM     10  C   UNK d   1       0.016 -24.503  -3.981  0.00  0.00     0.253 C 
ATOM     11  C   UNK d   1       1.537 -24.557  -4.140  0.00  0.00     0.189 C 
ATOM     12  C   UNK d   1       2.158 -23.238  -3.677  0.00  0.00     0.183 C 
ATOM     13  C   UNK d   1       1.693 -22.857  -2.267  0.00  0.00     0.205 C 
BRANCH  10  14
ATOM     14  C   UNK d   1      -0.584 -25.868  -4.359  0.00  0.00     0.172 C 
ATOM     15  O   UNK d   1      -1.000 -26.699  -3.568  0.00  0.00    -0.648 OA
BRANCH  14  16
ATOM     16  O   UNK d   1      -0.670 -26.064  -5.702  0.00  0.00    -0.774 OA
ATOM     17  H   UNK d   1       0.183 -25.882  -6.164  0.00  0.00     0.167 HD
ENDBRANCH  14  16
ENDBRANCH  10  14
BRANCH  11  18
ATOM     18  O   UNK d   1       1.879 -24.767  -5.525  0.00  0.00    -0.390 OA
ATOM     19  H   UNK d   1       1.026 -24.928  -5.982  0.00  0.00     0.210 HD
ENDBRANCH  11  18
BRANCH  12  20
ATOM     20  O   UNK d   1       3.591 -23.348  -3.711  0.00  0.00    -0.390 OA
ATOM     21  H   UNK d   1       3.943 -22.730  -3.043  0.00  0.00     0.210 HD
ENDBRANCH  12  20
BRANCH  13  22
ATOM     22  O   UNK d   1       2.224 -21.554  -1.975  0.00  0.00    -0.388 OA
ATOM     23  H   UNK d   1       1.765 -21.258  -1.166  0.00  0.00     0.210 HD
ENDBRANCH  13  22
ENDBRANCH   7   8
ENDBRANCH   1   7
BRANCH   3  24
ATOM     24  O   UNK d   1       1.327 -21.702   0.950  0.00  0.00    -0.353 OA
ATOM     25  C   UNK d   1       1.241 -20.858   2.092  0.00  0.00     0.210 C 
ENDBRANCH   3  24
BRANCH   4  26
ATOM     26  C   UNK d   1      -0.745 -27.014   1.315  0.00  0.00     0.090 A 
ATOM     27  O   UNK d   1      -0.236 -27.913   0.383  0.00  0.00    -0.309 OA
ATOM     28  C   UNK d   1      -0.710 -29.203   0.371  0.00  0.00     0.095 A 
ATOM     29  C   UNK d   1      -1.700 -29.669   1.239  0.00  0.00     0.081 A 
ATOM     30  C   UNK d   1      -0.147 -30.061  -0.576  0.00  0.00     0.075 A 
ATOM     31  C   UNK d   1      -2.257 -28.713   2.215  0.00  0.00     0.190 A 
ATOM     32  C   UNK d   1      -2.122 -31.004   1.152  0.00  0.00     0.085 A 
ATOM     33  O   UNK d   1      -3.143 -28.972   3.020  0.00  0.00    -0.287 OA
ATOM     34  C   UNK d   1      -1.695 -27.353   2.198  0.00  0.00     0.094 A 
ATOM     35  C   UNK d   1      -1.560 -31.866   0.206  0.00  0.00     0.074 A 
ATOM     36  C   UNK d   1      -0.575 -31.382  -0.651  0.00  0.00     0.071 A 
BRANCH  32  37
ATOM     37  O   UNK d   1      -3.088 -31.487   1.988  0.00  0.00    -0.360 OA
ATOM     38  H   UNK d   1      -3.502 -30.771   2.493  0.00  0.00     0.217 HD
ENDBRANCH  32  37
BRANCH  36  39
ATOM     39  O   UNK d   1       0.001 -32.184  -1.592  0.00  0.00    -0.361 OA
ATOM     40  H   UNK d   1       0.276 -31.642  -2.351  0.00  0.00     0.217 HD
ENDBRANCH  36  39
ENDBRANCH   4  26
TORSDOF 11
