MODEL 1
REMARK VINA RESULT:      -5.0      0.000      0.000
REMARK  2 active torsions:
REMARK  status: ('A' for Active; 'I' for Inactive)
REMARK    1  A    between atoms: O_1  and  C_9 
REMARK    2  A    between atoms: N_3  and  C_4 
REMARK       I    between atoms: N_3  and  C_10 
ROOT
ATOM      1  C   LIG d   1       5.695  26.821 -12.530  0.00  0.00     0.034 A 
ATOM      2  C   LIG d   1       6.775  26.024 -12.144  0.00  0.00     0.032 A 
ATOM      3  C   LIG d   1       5.069  27.626 -11.568  0.00  0.00     0.032 A 
ATOM      4  C   LIG d   1       7.227  26.030 -10.820  0.00  0.00     0.039 A 
ATOM      5  C   LIG d   1       5.519  27.634 -10.245  0.00  0.00     0.039 A 
ATOM      6  C   LIG d   1       6.594  26.836  -9.881  0.00  0.00     0.065 A 
ENDROOT
BRANCH   1   7
ATOM      7  N   LIG d   1       5.182  26.872 -13.843  0.00  0.00    -0.328 N 
ATOM      8  C   LIG d   1       5.576  27.712 -14.869  0.00  0.00     0.218 C 
ATOM      9  O   LIG d   1       6.450  28.571 -14.831  0.00  0.00    -0.274 OA
ATOM     10  C   LIG d   1       4.783  27.468 -16.128  0.00  0.00     0.117 C 
ATOM     11  H   LIG d   1       4.441  26.218 -14.054  0.00  0.00     0.169 HD
ENDBRANCH   1   7
BRANCH   6  12
ATOM     12  O   LIG d   1       7.002  26.872  -8.581  0.00  0.00    -0.361 OA
ATOM     13  H   LIG d   1       6.887  27.777  -8.247  0.00  0.00     0.217 HD
ENDBRANCH   6  12
TORSDOF 2
ENDMDL
MODEL 2
REMARK VINA RESULT:      -5.0     24.487     25.228
REMARK  2 active torsions:
REMARK  status: ('A' for Active; 'I' for Inactive)
REMARK    1  A    between atoms: O_1  and  C_9 
REMARK    2  A    between atoms: N_3  and  C_4 
REMARK       I    between atoms: N_3  and  C_10 
ROOT
ATOM      1  C   LIG d   1      19.252   7.518  -3.834  0.00  0.00     0.034 A 
ATOM      2  C   LIG d   1      20.232   7.326  -4.811  0.00  0.00     0.032 A 
ATOM      3  C   LIG d   1      17.958   7.034  -4.069  0.00  0.00     0.032 A 
ATOM      4  C   LIG d   1      19.928   6.660  -6.004  0.00  0.00     0.039 A 
ATOM      5  C   LIG d   1      17.652   6.368  -5.259  0.00  0.00     0.039 A 
ATOM      6  C   LIG d   1      18.638   6.187  -6.218  0.00  0.00     0.065 A 
ENDROOT
BRANCH   1   7
ATOM      7  N   LIG d   1      19.480   8.174  -2.607  0.00  0.00    -0.328 N 
ATOM      8  C   LIG d   1      19.770   9.513  -2.409  0.00  0.00     0.218 C 
ATOM      9  O   LIG d   1      19.880  10.383  -3.265  0.00  0.00    -0.274 OA
ATOM     10  C   LIG d   1      19.954   9.835  -0.947  0.00  0.00     0.117 C 
ATOM     11  H   LIG d   1      19.425   7.596  -1.779  0.00  0.00     0.169 HD
ENDBRANCH   1   7
BRANCH   6  12
ATOM     12  O   LIG d   1      18.300   5.534  -7.365  0.00  0.00    -0.361 OA
ATOM     13  H   LIG d   1      18.210   4.588  -7.165  0.00  0.00     0.217 HD
ENDBRANCH   6  12
TORSDOF 2
ENDMDL
MODEL 3
REMARK VINA RESULT:      -4.6     24.116     25.095
REMARK  2 active torsions:
REMARK  status: ('A' for Active; 'I' for Inactive)
REMARK    1  A    between atoms: O_1  and  C_9 
REMARK    2  A    between atoms: N_3  and  C_4 
REMARK       I    between atoms: N_3  and  C_10 
ROOT
ATOM      1  C   LIG d   1      20.200   8.968  -2.564  0.00  0.00     0.034 A 
ATOM      2  C   LIG d   1      21.524   8.766  -2.165  0.00  0.00     0.032 A 
ATOM      3  C   LIG d   1      19.702  10.277  -2.619  0.00  0.00     0.032 A 
ATOM      4  C   LIG d   1      22.340   9.852  -1.827  0.00  0.00     0.039 A 
ATOM      5  C   LIG d   1      20.515  11.363  -2.283  0.00  0.00     0.039 A 
ATOM      6  C   LIG d   1      21.827  11.142  -1.889  0.00  0.00     0.065 A 
ENDROOT
BRANCH   1   7
ATOM      7  N   LIG d   1      19.317   7.929  -2.922  0.00  0.00    -0.328 N 
ATOM      8  C   LIG d   1      19.312   7.193  -4.093  0.00  0.00     0.218 C 
ATOM      9  O   LIG d   1      20.079   7.303  -5.042  0.00  0.00    -0.274 OA
ATOM     10  C   LIG d   1      18.204   6.170  -4.107  0.00  0.00     0.117 C 
ATOM     11  H   LIG d   1      18.606   7.699  -2.240  0.00  0.00     0.169 HD
ENDBRANCH   1   7
BRANCH   6  12
ATOM     12  O   LIG d   1      22.587  12.227  -1.569  0.00  0.00    -0.361 OA
ATOM     13  H   LIG d   1      23.494  11.926  -1.393  0.00  0.00     0.217 HD
ENDBRANCH   6  12
TORSDOF 2
ENDMDL
MODEL 4
REMARK VINA RESULT:      -4.5     11.038     13.613
REMARK  2 active torsions:
REMARK  status: ('A' for Active; 'I' for Inactive)
REMARK    1  A    between atoms: O_1  and  C_9 
REMARK    2  A    between atoms: N_3  and  C_4 
REMARK       I    between atoms: N_3  and  C_10 
ROOT
ATOM      1  C   LIG d   1       8.150  21.373  -0.695  0.00  0.00     0.034 A 
ATOM      2  C   LIG d   1       6.861  21.137  -1.179  0.00  0.00     0.032 A 
ATOM      3  C   LIG d   1       8.930  22.366  -1.304  0.00  0.00     0.032 A 
ATOM      4  C   LIG d   1       6.356  21.880  -2.252  0.00  0.00     0.039 A 
ATOM      5  C   LIG d   1       8.428  23.110  -2.375  0.00  0.00     0.039 A 
ATOM      6  C   LIG d   1       7.145  22.861  -2.841  0.00  0.00     0.065 A 
ENDROOT
BRANCH   1   7
ATOM      7  N   LIG d   1       8.730  20.670   0.381  0.00  0.00    -0.328 N 
ATOM      8  C   LIG d   1       9.381  19.450   0.337  0.00  0.00     0.218 C 
ATOM      9  O   LIG d   1       9.580  18.749  -0.649  0.00  0.00    -0.274 OA
ATOM     10  C   LIG d   1       9.858  19.021   1.702  0.00  0.00     0.117 C 
ATOM     11  H   LIG d   1       8.658  21.112   1.287  0.00  0.00     0.169 HD
ENDBRANCH   1   7
BRANCH   6  12
ATOM     12  O   LIG d   1       6.692  23.607  -3.887  0.00  0.00    -0.361 OA
ATOM     13  H   LIG d   1       6.440  24.485  -3.553  0.00  0.00     0.217 HD
ENDBRANCH   6  12
TORSDOF 2
ENDMDL
MODEL 5
REMARK VINA RESULT:      -4.4      2.258      2.620
REMARK  2 active torsions:
REMARK  status: ('A' for Active; 'I' for Inactive)
REMARK    1  A    between atoms: O_1  and  C_9 
REMARK    2  A    between atoms: N_3  and  C_4 
REMARK       I    between atoms: N_3  and  C_10 
ROOT
ATOM      1  C   LIG d   1       7.685  28.360 -12.714  0.00  0.00     0.034 A 
ATOM      2  C   LIG d   1       7.593  29.131 -11.552  0.00  0.00     0.032 A 
ATOM      3  C   LIG d   1       7.353  27.000 -12.652  0.00  0.00     0.032 A 
ATOM      4  C   LIG d   1       7.174  28.556 -10.347  0.00  0.00     0.039 A 
ATOM      5  C   LIG d   1       6.935  26.423 -11.450  0.00  0.00     0.039 A 
ATOM      6  C   LIG d   1       6.849  27.205 -10.307  0.00  0.00     0.065 A 
ENDROOT
BRANCH   1   7
ATOM      7  N   LIG d   1       8.095  28.866 -13.965  0.00  0.00    -0.328 N 
ATOM      8  C   LIG d   1       7.354  29.631 -14.848  0.00  0.00     0.218 C 
ATOM      9  O   LIG d   1       6.200  30.018 -14.708  0.00  0.00    -0.274 OA
ATOM     10  C   LIG d   1       8.142  29.973 -16.089  0.00  0.00     0.117 C 
ATOM     11  H   LIG d   1       9.040  28.639 -14.245  0.00  0.00     0.169 HD
ENDBRANCH   1   7
BRANCH   6  12
ATOM     12  O   LIG d   1       6.438  26.605  -9.154  0.00  0.00    -0.361 OA
ATOM     13  H   LIG d   1       7.191  26.563  -8.543  0.00  0.00     0.217 HD
ENDBRANCH   6  12
TORSDOF 2
ENDMDL
MODEL 6
REMARK VINA RESULT:      -4.4     11.708     13.846
REMARK  2 active torsions:
REMARK  status: ('A' for Active; 'I' for Inactive)
REMARK    1  A    between atoms: O_1  and  C_9 
REMARK    2  A    between atoms: N_3  and  C_4 
REMARK       I    between atoms: N_3  and  C_10 
ROOT
ATOM      1  C   LIG d   1       8.115  21.191  -0.368  0.00  0.00     0.034 A 
ATOM      2  C   LIG d   1       9.101  22.090   0.048  0.00  0.00     0.032 A 
ATOM      3  C   LIG d   1       7.296  21.537  -1.451  0.00  0.00     0.032 A 
ATOM      4  C   LIG d   1       9.268  23.316  -0.607  0.00  0.00     0.039 A 
ATOM      5  C   LIG d   1       7.461  22.761  -2.106  0.00  0.00     0.039 A 
ATOM      6  C   LIG d   1       8.445  23.640  -1.679  0.00  0.00     0.065 A 
ENDROOT
BRANCH   1   7
ATOM      7  N   LIG d   1       7.886  19.938   0.237  0.00  0.00    -0.328 N 
ATOM      8  C   LIG d   1       8.618  18.775   0.071  0.00  0.00     0.218 C 
ATOM      9  O   LIG d   1       9.608  18.616  -0.633  0.00  0.00    -0.274 OA
ATOM     10  C   LIG d   1       8.053  17.638   0.885  0.00  0.00     0.117 C 
ATOM     11  H   LIG d   1       7.093  19.888   0.864  0.00  0.00     0.169 HD
ENDBRANCH   1   7
BRANCH   6  12
ATOM     12  O   LIG d   1       8.574  24.823  -2.344  0.00  0.00    -0.361 OA
ATOM     13  H   LIG d   1       9.404  25.244  -2.064  0.00  0.00     0.217 HD
ENDBRANCH   6  12
TORSDOF 2
ENDMDL
MODEL 7
REMARK VINA RESULT:      -4.4     40.800     42.253
REMARK  2 active torsions:
REMARK  status: ('A' for Active; 'I' for Inactive)
REMARK    1  A    between atoms: O_1  and  C_9 
REMARK    2  A    between atoms: N_3  and  C_4 
REMARK       I    between atoms: N_3  and  C_10 
ROOT
ATOM      1  C   LIG d   1       8.987   1.194  20.940  0.00  0.00     0.034 A 
ATOM      2  C   LIG d   1      10.026   0.318  21.265  0.00  0.00     0.032 A 
ATOM      3  C   LIG d   1       8.967   2.467  21.525  0.00  0.00     0.032 A 
ATOM      4  C   LIG d   1      11.031   0.705  22.159  0.00  0.00     0.039 A 
ATOM      5  C   LIG d   1       9.970   2.857  22.418  0.00  0.00     0.039 A 
ATOM      6  C   LIG d   1      10.993   1.973  22.728  0.00  0.00     0.065 A 
ENDROOT
BRANCH   1   7
ATOM      7  N   LIG d   1       7.941   0.880  20.048  0.00  0.00    -0.328 N 
ATOM      8  C   LIG d   1       8.051   0.471  18.730  0.00  0.00     0.218 C 
ATOM      9  O   LIG d   1       9.082   0.302  18.089  0.00  0.00    -0.274 OA
ATOM     10  C   LIG d   1       6.700   0.237  18.103  0.00  0.00     0.117 C 
ATOM     11  H   LIG d   1       7.004   0.965  20.418  0.00  0.00     0.169 HD
ENDBRANCH   1   7
BRANCH   6  12
ATOM     12  O   LIG d   1      11.951   2.390  23.603  0.00  0.00    -0.361 OA
ATOM     13  H   LIG d   1      11.633   2.231  24.507  0.00  0.00     0.217 HD
ENDBRANCH   6  12
TORSDOF 2
ENDMDL
MODEL 8
REMARK VINA RESULT:      -4.4     43.449     45.566
REMARK  2 active torsions:
REMARK  status: ('A' for Active; 'I' for Inactive)
REMARK    1  A    between atoms: O_1  and  C_9 
REMARK    2  A    between atoms: N_3  and  C_4 
REMARK       I    between atoms: N_3  and  C_10 
ROOT
ATOM      1  C   LIG d   1      11.027  -1.286  22.995  0.00  0.00     0.034 A 
ATOM      2  C   LIG d   1      10.602  -1.150  21.671  0.00  0.00     0.032 A 
ATOM      3  C   LIG d   1      11.432  -0.142  23.697  0.00  0.00     0.032 A 
ATOM      4  C   LIG d   1      10.580   0.107  21.056  0.00  0.00     0.039 A 
ATOM      5  C   LIG d   1      11.410   1.114  23.085  0.00  0.00     0.039 A 
ATOM      6  C   LIG d   1      10.984   1.229  21.770  0.00  0.00     0.065 A 
ENDROOT
BRANCH   1   7
ATOM      7  N   LIG d   1      11.077  -2.515  23.685  0.00  0.00    -0.328 N 
ATOM      8  C   LIG d   1      10.033  -3.171  24.314  0.00  0.00     0.218 C 
ATOM      9  O   LIG d   1       8.866  -2.807  24.389  0.00  0.00    -0.274 OA
ATOM     10  C   LIG d   1      10.486  -4.462  24.949  0.00  0.00     0.117 C 
ATOM     11  H   LIG d   1      11.982  -2.965  23.721  0.00  0.00     0.169 HD
ENDBRANCH   1   7
BRANCH   6  12
ATOM     12  O   LIG d   1      10.978   2.471  21.209  0.00  0.00    -0.361 OA
ATOM     13  H   LIG d   1      10.469   3.066  21.785  0.00  0.00     0.217 HD
ENDBRANCH   6  12
TORSDOF 2
ENDMDL
MODEL 9
REMARK VINA RESULT:      -4.3     19.357     20.821
REMARK  2 active torsions:
REMARK  status: ('A' for Active; 'I' for Inactive)
REMARK    1  A    between atoms: O_1  and  C_9 
REMARK    2  A    between atoms: N_3  and  C_4 
REMARK       I    between atoms: N_3  and  C_10 
ROOT
ATOM      1  C   LIG d   1       0.758   9.766  -3.066  0.00  0.00     0.034 A 
ATOM      2  C   LIG d   1       0.453   8.815  -4.042  0.00  0.00     0.032 A 
ATOM      3  C   LIG d   1       1.606  10.831  -3.400  0.00  0.00     0.032 A 
ATOM      4  C   LIG d   1       0.983   8.923  -5.333  0.00  0.00     0.039 A 
ATOM      5  C   LIG d   1       2.137  10.942  -4.688  0.00  0.00     0.039 A 
ATOM      6  C   LIG d   1       1.821   9.987  -5.644  0.00  0.00     0.065 A 
ENDROOT
BRANCH   1   7
ATOM      7  N   LIG d   1       0.263   9.729  -1.746  0.00  0.00    -0.328 N 
ATOM      8  C   LIG d   1       0.858   9.150  -0.639  0.00  0.00     0.218 C 
ATOM      9  O   LIG d   1       1.932   8.562  -0.596  0.00  0.00    -0.274 OA
ATOM     10  C   LIG d   1       0.013   9.313   0.600  0.00  0.00     0.117 C 
ATOM     11  H   LIG d   1      -0.631  10.177  -1.596  0.00  0.00     0.169 HD
ENDBRANCH   1   7
BRANCH   6  12
ATOM     12  O   LIG d   1       2.359  10.131  -6.888  0.00  0.00    -0.361 OA
ATOM     13  H   LIG d   1       1.966   9.462  -7.472  0.00  0.00     0.217 HD
ENDBRANCH   6  12
TORSDOF 2
ENDMDL
