MODEL 1
REMARK minimizedAffinity -6.46589804REMARK CNNscore 0.202169791REMARK CNNaffinity 6.53149652REMARK  13 active torsions:
REMARK  status: ('A' for Active; 'I' for Inactive)
REMARK    1  A    between atoms: S_2  and  C_10 
REMARK    2  A    between atoms: S_2  and  C_13 
REMARK    3  A    between atoms: O_5  and  C_23 
REMARK    4  A    between atoms: C_7  and  C_10 
REMARK    5  A    between atoms: C_7  and  C_11 
REMARK    6  A    between atoms: C_11  and  C_12 
REMARK    7  A    between atoms: C_13  and  C_15 
REMARK    8  A    between atoms: C_13  and  C_14 
REMARK    9  A    between atoms: C_14  and  C_16 
REMARK   10  A    between atoms: C_16  and  C_19 
REMARK   11  A    between atoms: C_20  and  C_23 
REMARK   12  A    between atoms: C_21  and  C_28 
REMARK   13  A    between atoms: C_32  and  C_33 
ROOT
ATOM      1  C   LIG d   1       8.753  -3.769  25.715  0.00  0.00     0.080 C 
ENDROOT
BRANCH   1   2
ATOM      2  S   LIG d   1       7.445  -3.514  26.983  0.00  0.00    -0.159 SA
BRANCH   2   3
ATOM      3  C   LIG d   1       7.521  -5.144  27.797  0.00  0.00     0.084 C 
BRANCH   3   4
ATOM      4  C   LIG d   1       6.123  -5.613  28.149  0.00  0.00    -0.022 A 
ATOM      5  C   LIG d   1       5.376  -6.436  27.113  0.00  0.00     0.011 A 
ATOM      6  C   LIG d   1       4.946  -5.026  27.382  0.00  0.00     0.011 A 
BRANCH   4   7
ATOM      7  C   LIG d   1       5.909  -6.003  29.611  0.00  0.00     0.123 C 
BRANCH   7   8
ATOM      8  C   LIG d   1       6.562  -5.030  30.605  0.00  0.00     0.173 C 
ATOM      9  O   LIG d   1       5.966  -3.923  30.754  0.00  0.00    -0.648 OA
ATOM     10  O   LIG d   1       7.614  -5.452  31.162  0.00  0.00    -0.648 OA
ENDBRANCH   7   8
ENDBRANCH   4   7
ENDBRANCH   3   4
ENDBRANCH   2   3
ENDBRANCH   1   2
BRANCH   1  11
ATOM     11  C   LIG d   1       8.207  -4.454  24.468  0.00  0.00    -0.043 A 
ATOM     12  C   LIG d   1       6.847  -4.789  24.346  0.00  0.00     0.019 A 
ATOM     13  C   LIG d   1       6.351  -5.442  23.208  0.00  0.00    -0.036 A 
ATOM     14  C   LIG d   1       7.231  -5.737  22.163  0.00  0.00     0.011 A 
ATOM     15  C   LIG d   1       8.579  -5.388  22.257  0.00  0.00     0.001 A 
ATOM     16  C   LIG d   1       9.066  -4.758  23.403  0.00  0.00     0.008 A 
BRANCH  13  17
ATOM     17  C   LIG d   1       4.951  -5.890  23.222  0.00  0.00     0.014 C 
ATOM     18  C   LIG d   1       3.892  -5.109  23.491  0.00  0.00     0.032 C 
BRANCH  18  19
ATOM     19  C   LIG d   1       2.494  -5.556  23.455  0.00  0.00     0.057 A 
ATOM     20  N   LIG d   1       1.931  -5.531  22.223  0.00  0.00    -0.248 NA
ATOM     21  C   LIG d   1       0.659  -5.941  22.084  0.00  0.00     0.069 A 
ATOM     22  C   LIG d   1      -0.119  -6.377  23.178  0.00  0.00    -0.007 A 
ATOM     23  C   LIG d   1       0.081  -5.942  20.824  0.00  0.00     0.056 A 
ATOM     24  C   LIG d   1       0.470  -6.365  24.444  0.00  0.00     0.016 A 
ATOM     25  C   LIG d   1      -1.443  -6.804  22.986  0.00  0.00     0.015 A 
ATOM     26  C   LIG d   1       1.789  -5.946  24.586  0.00  0.00     0.032 A 
ATOM     27  C   LIG d   1      -2.001  -6.800  21.710  0.00  0.00     0.025 A 
ATOM     28  C   LIG d   1      -1.234  -6.366  20.633  0.00  0.00     0.036 A 
ATOM     29 CL   LIG d   1      -1.916  -6.355  19.053  0.00  0.00    -0.084 Cl
ENDBRANCH  18  19
ENDBRANCH  13  17
ENDBRANCH   1  11
BRANCH   1  30
ATOM     30  C   LIG d   1       9.401  -2.407  25.394  0.00  0.00     0.025 C 
BRANCH  30  31
ATOM     31  C   LIG d   1       8.411  -1.448  24.706  0.00  0.00     0.040 C 
BRANCH  31  32
ATOM     32  C   LIG d   1       9.022  -0.094  24.392  0.00  0.00    -0.049 A 
ATOM     33  C   LIG d   1       9.801   0.215  23.247  0.00  0.00    -0.019 A 
ATOM     34  C   LIG d   1      10.202   1.566  23.089  0.00  0.00     0.011 A 
ATOM     35  C   LIG d   1       9.904   2.556  24.028  0.00  0.00     0.001 A 
ATOM     36  C   LIG d   1       9.184   2.230  25.164  0.00  0.00     0.001 A 
ATOM     37  C   LIG d   1       8.746   0.923  25.339  0.00  0.00     0.007 A 
BRANCH  33  38
ATOM     38  C   LIG d   1      10.236  -0.801  22.174  0.00  0.00     0.078 C 
ATOM     39  C   LIG d   1      11.386  -1.712  22.637  0.00  0.00     0.051 C 
ATOM     40  C   LIG d   1       9.059  -1.604  21.613  0.00  0.00     0.051 C 
BRANCH  38  41
ATOM     41  O   LIG d   1      10.773  -0.109  21.022  0.00  0.00    -0.386 OA
ATOM     42  H   LIG d   1      11.630   0.262  21.294  0.00  0.00     0.211 HD
ENDBRANCH  38  41
ENDBRANCH  33  38
ENDBRANCH  31  32
ENDBRANCH  30  31
ENDBRANCH   1  30
TORSDOF 13
ENDMDL
MODEL 2
REMARK minimizedAffinity -5.51802492REMARK CNNscore 0.194369689REMARK CNNaffinity 6.09628439REMARK  13 active torsions:
REMARK  status: ('A' for Active; 'I' for Inactive)
REMARK    1  A    between atoms: S_2  and  C_10 
REMARK    2  A    between atoms: S_2  and  C_13 
REMARK    3  A    between atoms: O_5  and  C_23 
REMARK    4  A    between atoms: C_7  and  C_10 
REMARK    5  A    between atoms: C_7  and  C_11 
REMARK    6  A    between atoms: C_11  and  C_12 
REMARK    7  A    between atoms: C_13  and  C_15 
REMARK    8  A    between atoms: C_13  and  C_14 
REMARK    9  A    between atoms: C_14  and  C_16 
REMARK   10  A    between atoms: C_16  and  C_19 
REMARK   11  A    between atoms: C_20  and  C_23 
REMARK   12  A    between atoms: C_21  and  C_28 
REMARK   13  A    between atoms: C_32  and  C_33 
ROOT
ATOM      1  C   LIG d   1       9.427  20.231   1.010  0.00  0.00     0.080 C 
ENDROOT
BRANCH   1   2
ATOM      2  S   LIG d   1       8.746  20.645  -0.647  0.00  0.00    -0.159 SA
BRANCH   2   3
ATOM      3  C   LIG d   1       7.856  22.176  -0.210  0.00  0.00     0.084 C 
BRANCH   3   4
ATOM      4  C   LIG d   1       8.594  23.380  -0.762  0.00  0.00    -0.022 A 
ATOM      5  C   LIG d   1       9.953  23.705  -0.165  0.00  0.00     0.011 A 
ATOM      6  C   LIG d   1       8.784  24.590   0.141  0.00  0.00     0.011 A 
BRANCH   4   7
ATOM      7  C   LIG d   1       8.435  23.617  -2.262  0.00  0.00     0.123 C 
BRANCH   7   8
ATOM      8  C   LIG d   1       6.992  23.439  -2.761  0.00  0.00     0.173 C 
ATOM      9  O   LIG d   1       6.856  22.691  -3.773  0.00  0.00    -0.648 OA
ATOM     10  O   LIG d   1       6.112  24.056  -2.098  0.00  0.00    -0.648 OA
ENDBRANCH   7   8
ENDBRANCH   4   7
ENDBRANCH   3   4
ENDBRANCH   2   3
ENDBRANCH   1   2
BRANCH   1  11
ATOM     11  C   LIG d   1       8.794  18.969   1.584  0.00  0.00    -0.043 A 
ATOM     12  C   LIG d   1       8.644  18.782   2.970  0.00  0.00     0.019 A 
ATOM     13  C   LIG d   1       8.085  17.609   3.496  0.00  0.00    -0.036 A 
ATOM     14  C   LIG d   1       7.642  16.619   2.616  0.00  0.00     0.011 A 
ATOM     15  C   LIG d   1       7.759  16.799   1.236  0.00  0.00     0.001 A 
ATOM     16  C   LIG d   1       8.337  17.961   0.724  0.00  0.00     0.008 A 
BRANCH  13  17
ATOM     17  C   LIG d   1       8.101  17.429   4.955  0.00  0.00     0.014 C 
ATOM     18  C   LIG d   1       9.150  17.682   5.755  0.00  0.00     0.032 C 
BRANCH  18  19
ATOM     19  C   LIG d   1       9.139  17.544   7.217  0.00  0.00     0.057 A 
ATOM     20  N   LIG d   1      10.116  18.236   7.851  0.00  0.00    -0.248 NA
ATOM     21  C   LIG d   1      10.176  18.187   9.193  0.00  0.00     0.069 A 
ATOM     22  C   LIG d   1       9.272  17.427   9.964  0.00  0.00    -0.007 A 
ATOM     23  C   LIG d   1      11.158  18.910   9.853  0.00  0.00     0.056 A 
ATOM     24  C   LIG d   1       8.291  16.697   9.288  0.00  0.00     0.016 A 
ATOM     25  C   LIG d   1       9.367  17.411  11.365  0.00  0.00     0.015 A 
ATOM     26  C   LIG d   1       8.226  16.751   7.900  0.00  0.00     0.032 A 
ATOM     27  C   LIG d   1      10.359  18.148  12.006  0.00  0.00     0.025 A 
ATOM     28  C   LIG d   1      11.252  18.895  11.244  0.00  0.00     0.036 A 
ATOM     29 CL   LIG d   1      12.483  19.806  12.029  0.00  0.00    -0.084 Cl
ENDBRANCH  18  19
ENDBRANCH  13  17
ENDBRANCH   1  11
BRANCH   1  30
ATOM     30  C   LIG d   1      10.961  20.111   0.897  0.00  0.00     0.025 C 
BRANCH  30  31
ATOM     31  C   LIG d   1      11.684  21.199   1.712  0.00  0.00     0.040 C 
BRANCH  31  32
ATOM     32  C   LIG d   1      11.167  21.314   3.134  0.00  0.00    -0.049 A 
ATOM     33  C   LIG d   1      11.636  20.567   4.246  0.00  0.00    -0.019 A 
ATOM     34  C   LIG d   1      11.087  20.890   5.514  0.00  0.00     0.011 A 
ATOM     35  C   LIG d   1      10.090  21.853   5.681  0.00  0.00     0.001 A 
ATOM     36  C   LIG d   1       9.608  22.540   4.581  0.00  0.00     0.001 A 
ATOM     37  C   LIG d   1      10.143  22.275   3.326  0.00  0.00     0.007 A 
BRANCH  33  38
ATOM     38  C   LIG d   1      12.691  19.446   4.176  0.00  0.00     0.078 C 
ATOM     39  C   LIG d   1      13.605  19.401   5.411  0.00  0.00     0.051 C 
ATOM     40  C   LIG d   1      12.074  18.078   3.869  0.00  0.00     0.051 C 
BRANCH  38  41
ATOM     41  O   LIG d   1      13.595  19.683   3.071  0.00  0.00    -0.386 OA
ATOM     42  H   LIG d   1      14.143  20.447   3.319  0.00  0.00     0.211 HD
ENDBRANCH  38  41
ENDBRANCH  33  38
ENDBRANCH  31  32
ENDBRANCH  30  31
ENDBRANCH   1  30
TORSDOF 13
ENDMDL
MODEL 3
REMARK minimizedAffinity -7.0604372REMARK CNNscore 0.186394274REMARK CNNaffinity 5.9285264REMARK  13 active torsions:
REMARK  status: ('A' for Active; 'I' for Inactive)
REMARK    1  A    between atoms: S_2  and  C_10 
REMARK    2  A    between atoms: S_2  and  C_13 
REMARK    3  A    between atoms: O_5  and  C_23 
REMARK    4  A    between atoms: C_7  and  C_10 
REMARK    5  A    between atoms: C_7  and  C_11 
REMARK    6  A    between atoms: C_11  and  C_12 
REMARK    7  A    between atoms: C_13  and  C_15 
REMARK    8  A    between atoms: C_13  and  C_14 
REMARK    9  A    between atoms: C_14  and  C_16 
REMARK   10  A    between atoms: C_16  and  C_19 
REMARK   11  A    between atoms: C_20  and  C_23 
REMARK   12  A    between atoms: C_21  and  C_28 
REMARK   13  A    between atoms: C_32  and  C_33 
ROOT
ATOM      1  C   LIG d   1      16.392  -2.614  -9.123  0.00  0.00     0.080 C 
ENDROOT
BRANCH   1   2
ATOM      2  S   LIG d   1      16.480  -4.327  -8.457  0.00  0.00    -0.159 SA
BRANCH   2   3
ATOM      3  C   LIG d   1      16.268  -3.951  -6.686  0.00  0.00     0.084 C 
BRANCH   3   4
ATOM      4  C   LIG d   1      15.102  -4.739  -6.124  0.00  0.00    -0.022 A 
ATOM      5  C   LIG d   1      14.115  -5.335  -7.114  0.00  0.00     0.011 A 
ATOM      6  C   LIG d   1      13.700  -4.166  -6.275  0.00  0.00     0.011 A 
BRANCH   4   7
ATOM      7  C   LIG d   1      15.410  -5.576  -4.884  0.00  0.00     0.123 C 
BRANCH   7   8
ATOM      8  C   LIG d   1      15.375  -7.090  -5.143  0.00  0.00     0.173 C 
ATOM      9  O   LIG d   1      16.409  -7.571  -5.694  0.00  0.00    -0.648 OA
ATOM     10  O   LIG d   1      14.321  -7.678  -4.771  0.00  0.00    -0.648 OA
ENDBRANCH   7   8
ENDBRANCH   4   7
ENDBRANCH   3   4
ENDBRANCH   2   3
ENDBRANCH   1   2
BRANCH   1  11
ATOM     11  C   LIG d   1      17.265  -2.442 -10.360  0.00  0.00    -0.043 A 
ATOM     12  C   LIG d   1      16.716  -2.103 -11.610  0.00  0.00     0.019 A 
ATOM     13  C   LIG d   1      17.518  -1.971 -12.753  0.00  0.00    -0.036 A 
ATOM     14  C   LIG d   1      18.898  -2.153 -12.633  0.00  0.00     0.011 A 
ATOM     15  C   LIG d   1      19.463  -2.464 -11.395  0.00  0.00     0.001 A 
ATOM     16  C   LIG d   1      18.653  -2.615 -10.268  0.00  0.00     0.008 A 
BRANCH  13  17
ATOM     17  C   LIG d   1      16.851  -1.761 -14.046  0.00  0.00     0.014 C 
ATOM     18  C   LIG d   1      15.693  -1.103 -14.221  0.00  0.00     0.032 C 
BRANCH  18  19
ATOM     19  C   LIG d   1      15.060  -0.859 -15.524  0.00  0.00     0.057 A 
ATOM     20  N   LIG d   1      13.980  -1.638 -15.776  0.00  0.00    -0.248 NA
ATOM     21  C   LIG d   1      13.322  -1.476 -16.936  0.00  0.00     0.069 A 
ATOM     22  C   LIG d   1      13.724  -0.538 -17.910  0.00  0.00    -0.007 A 
ATOM     23  C   LIG d   1      12.202  -2.251 -17.192  0.00  0.00     0.056 A 
ATOM     24  C   LIG d   1      14.858   0.233 -17.644  0.00  0.00     0.016 A 
ATOM     25  C   LIG d   1      13.001  -0.396 -19.105  0.00  0.00     0.015 A 
ATOM     26  C   LIG d   1      15.537   0.068 -16.441  0.00  0.00     0.032 A 
ATOM     27  C   LIG d   1      11.877  -1.184 -19.340  0.00  0.00     0.025 A 
ATOM     28  C   LIG d   1      11.483  -2.110 -18.380  0.00  0.00     0.036 A 
ATOM     29 CL   LIG d   1      10.097  -3.090 -18.662  0.00  0.00    -0.084 Cl
ENDBRANCH  18  19
ENDBRANCH  13  17
ENDBRANCH   1  11
BRANCH   1  30
ATOM     30  C   LIG d   1      14.915  -2.268  -9.402  0.00  0.00     0.025 C 
BRANCH  30  31
ATOM     31  C   LIG d   1      14.134  -3.480  -9.943  0.00  0.00     0.040 C 
BRANCH  31  32
ATOM     32  C   LIG d   1      13.268  -3.136 -11.142  0.00  0.00    -0.049 A 
ATOM     33  C   LIG d   1      12.523  -4.065 -11.915  0.00  0.00    -0.019 A 
ATOM     34  C   LIG d   1      11.699  -3.531 -12.939  0.00  0.00     0.011 A 
ATOM     35  C   LIG d   1      11.646  -2.167 -13.231  0.00  0.00     0.001 A 
ATOM     36  C   LIG d   1      12.414  -1.278 -12.500  0.00  0.00     0.001 A 
ATOM     37  C   LIG d   1      13.211  -1.759 -11.467  0.00  0.00     0.007 A 
BRANCH  33  38
ATOM     38  C   LIG d   1      12.542  -5.593 -11.721  0.00  0.00     0.078 C 
ATOM     39  C   LIG d   1      11.776  -6.052 -10.469  0.00  0.00     0.051 C 
ATOM     40  C   LIG d   1      12.096  -6.350 -12.975  0.00  0.00     0.051 C 
BRANCH  38  41
ATOM     41  O   LIG d   1      13.897  -6.048 -11.496  0.00  0.00    -0.386 OA
ATOM     42  H   LIG d   1      14.151  -5.738 -10.609  0.00  0.00     0.211 HD
ENDBRANCH  38  41
ENDBRANCH  33  38
ENDBRANCH  31  32
ENDBRANCH  30  31
ENDBRANCH   1  30
TORSDOF 13
ENDMDL
MODEL 4
REMARK minimizedAffinity -6.644804REMARK CNNscore 0.172846705REMARK CNNaffinity 5.95515347REMARK  13 active torsions:
REMARK  status: ('A' for Active; 'I' for Inactive)
REMARK    1  A    between atoms: S_2  and  C_10 
REMARK    2  A    between atoms: S_2  and  C_13 
REMARK    3  A    between atoms: O_5  and  C_23 
REMARK    4  A    between atoms: C_7  and  C_10 
REMARK    5  A    between atoms: C_7  and  C_11 
REMARK    6  A    between atoms: C_11  and  C_12 
REMARK    7  A    between atoms: C_13  and  C_15 
REMARK    8  A    between atoms: C_13  and  C_14 
REMARK    9  A    between atoms: C_14  and  C_16 
REMARK   10  A    between atoms: C_16  and  C_19 
REMARK   11  A    between atoms: C_20  and  C_23 
REMARK   12  A    between atoms: C_21  and  C_28 
REMARK   13  A    between atoms: C_32  and  C_33 
ROOT
ATOM      1  C   LIG d   1       7.566  20.847 -22.763  0.00  0.00     0.080 C 
ENDROOT
BRANCH   1   2
ATOM      2  S   LIG d   1       5.889  20.146 -23.051  0.00  0.00    -0.159 SA
BRANCH   2   3
ATOM      3  C   LIG d   1       6.194  18.444 -22.474  0.00  0.00     0.084 C 
BRANCH   3   4
ATOM      4  C   LIG d   1       4.900  17.654 -22.482  0.00  0.00    -0.022 A 
ATOM      5  C   LIG d   1       3.610  18.416 -22.226  0.00  0.00     0.011 A 
ATOM      6  C   LIG d   1       4.141  17.492 -21.173  0.00  0.00     0.011 A 
BRANCH   4   7
ATOM      7  C   LIG d   1       4.828  16.520 -23.502  0.00  0.00     0.123 C 
BRANCH   7   8
ATOM      8  C   LIG d   1       6.088  15.639 -23.528  0.00  0.00     0.173 C 
ATOM      9  O   LIG d   1       6.283  14.941 -22.491  0.00  0.00    -0.648 OA
ATOM     10  O   LIG d   1       6.776  15.713 -24.584  0.00  0.00    -0.648 OA
ENDBRANCH   7   8
ENDBRANCH   4   7
ENDBRANCH   3   4
ENDBRANCH   2   3
ENDBRANCH   1   2
BRANCH   1  11
ATOM     11  C   LIG d   1       7.500  22.243 -22.156  0.00  0.00    -0.043 A 
ATOM     12  C   LIG d   1       6.370  22.686 -21.446  0.00  0.00     0.019 A 
ATOM     13  C   LIG d   1       6.300  23.980 -20.911  0.00  0.00    -0.036 A 
ATOM     14  C   LIG d   1       7.395  24.834 -21.065  0.00  0.00     0.011 A 
ATOM     15  C   LIG d   1       8.535  24.402 -21.745  0.00  0.00     0.001 A 
ATOM     16  C   LIG d   1       8.585  23.119 -22.293  0.00  0.00     0.008 A 
BRANCH  13  17
ATOM     17  C   LIG d   1       5.029  24.415 -20.313  0.00  0.00     0.014 C 
ATOM     18  C   LIG d   1       4.198  23.631 -19.607  0.00  0.00     0.032 C 
BRANCH  18  19
ATOM     19  C   LIG d   1       2.954  24.088 -18.974  0.00  0.00     0.057 A 
ATOM     20  N   LIG d   1       1.908  23.239 -19.119  0.00  0.00    -0.248 NA
ATOM     21  C   LIG d   1       0.731  23.561 -18.558  0.00  0.00     0.069 A 
ATOM     22  C   LIG d   1       0.537  24.761 -17.841  0.00  0.00    -0.007 A 
ATOM     23  C   LIG d   1      -0.339  22.688 -18.680  0.00  0.00     0.056 A 
ATOM     24  C   LIG d   1       1.620  25.637 -17.730  0.00  0.00     0.016 A 
ATOM     25  C   LIG d   1      -0.710  25.054 -17.264  0.00  0.00     0.015 A 
ATOM     26  C   LIG d   1       2.840  25.301 -18.307  0.00  0.00     0.032 A 
ATOM     27  C   LIG d   1      -1.769  24.160 -17.397  0.00  0.00     0.025 A 
ATOM     28  C   LIG d   1      -1.577  22.979 -18.107  0.00  0.00     0.036 A 
ATOM     29 CL   LIG d   1      -2.881  21.869 -18.279  0.00  0.00    -0.084 Cl
ENDBRANCH  18  19
ENDBRANCH  13  17
ENDBRANCH   1  11
BRANCH   1  30
ATOM     30  C   LIG d   1       8.365  19.867 -21.880  0.00  0.00     0.025 C 
BRANCH  30  31
ATOM     31  C   LIG d   1       9.866  19.879 -22.222  0.00  0.00     0.040 C 
BRANCH  31  32
ATOM     32  C   LIG d   1      10.689  20.696 -21.243  0.00  0.00    -0.049 A 
ATOM     33  C   LIG d   1      11.858  21.435 -21.562  0.00  0.00    -0.019 A 
ATOM     34  C   LIG d   1      12.430  22.212 -20.521  0.00  0.00     0.011 A 
ATOM     35  C   LIG d   1      11.919  22.225 -19.221  0.00  0.00     0.001 A 
ATOM     36  C   LIG d   1      10.807  21.463 -18.913  0.00  0.00     0.001 A 
ATOM     37  C   LIG d   1      10.199  20.712 -19.913  0.00  0.00     0.007 A 
BRANCH  33  38
ATOM     38  C   LIG d   1      12.541  21.455 -22.942  0.00  0.00     0.078 C 
ATOM     39  C   LIG d   1      13.021  20.067 -23.398  0.00  0.00     0.051 C 
ATOM     40  C   LIG d   1      11.687  22.146 -24.010  0.00  0.00     0.051 C 
BRANCH  38  41
ATOM     41  O   LIG d   1      13.750  22.250 -22.887  0.00  0.00    -0.386 OA
ATOM     42  H   LIG d   1      14.392  21.742 -22.362  0.00  0.00     0.211 HD
ENDBRANCH  38  41
ENDBRANCH  33  38
ENDBRANCH  31  32
ENDBRANCH  30  31
ENDBRANCH   1  30
TORSDOF 13
ENDMDL
MODEL 5
REMARK minimizedAffinity -7.49910927REMARK CNNscore 0.168213338REMARK CNNaffinity 6.10978031REMARK  13 active torsions:
REMARK  status: ('A' for Active; 'I' for Inactive)
REMARK    1  A    between atoms: S_2  and  C_10 
REMARK    2  A    between atoms: S_2  and  C_13 
REMARK    3  A    between atoms: O_5  and  C_23 
REMARK    4  A    between atoms: C_7  and  C_10 
REMARK    5  A    between atoms: C_7  and  C_11 
REMARK    6  A    between atoms: C_11  and  C_12 
REMARK    7  A    between atoms: C_13  and  C_15 
REMARK    8  A    between atoms: C_13  and  C_14 
REMARK    9  A    between atoms: C_14  and  C_16 
REMARK   10  A    between atoms: C_16  and  C_19 
REMARK   11  A    between atoms: C_20  and  C_23 
REMARK   12  A    between atoms: C_21  and  C_28 
REMARK   13  A    between atoms: C_32  and  C_33 
ROOT
ATOM      1  C   LIG d   1      16.457  -3.437  -3.516  0.00  0.00     0.080 C 
ENDROOT
BRANCH   1   2
ATOM      2  S   LIG d   1      16.423  -5.221  -3.963  0.00  0.00    -0.159 SA
BRANCH   2   3
ATOM      3  C   LIG d   1      17.450  -5.151  -5.469  0.00  0.00     0.084 C 
BRANCH   3   4
ATOM      4  C   LIG d   1      16.927  -6.134  -6.498  0.00  0.00    -0.022 A 
ATOM      5  C   LIG d   1      17.568  -6.116  -7.876  0.00  0.00     0.011 A 
ATOM      6  C   LIG d   1      16.177  -5.588  -7.705  0.00  0.00     0.011 A 
BRANCH   4   7
ATOM      7  C   LIG d   1      16.521  -7.502  -5.955  0.00  0.00     0.123 C 
BRANCH   7   8
ATOM      8  C   LIG d   1      17.688  -8.500  -5.877  0.00  0.00     0.173 C 
ATOM      9  O   LIG d   1      18.520  -8.291  -4.947  0.00  0.00    -0.648 OA
ATOM     10  O   LIG d   1      17.674  -9.415  -6.748  0.00  0.00    -0.648 OA
ENDBRANCH   7   8
ENDBRANCH   4   7
ENDBRANCH   3   4
ENDBRANCH   2   3
ENDBRANCH   1   2
BRANCH   1  11
ATOM     11  C   LIG d   1      17.839  -2.995  -3.052  0.00  0.00    -0.043 A 
ATOM     12  C   LIG d   1      18.195  -1.636  -2.983  0.00  0.00     0.019 A 
ATOM     13  C   LIG d   1      19.477  -1.232  -2.582  0.00  0.00    -0.036 A 
ATOM     14  C   LIG d   1      20.408  -2.208  -2.215  0.00  0.00     0.011 A 
ATOM     15  C   LIG d   1      20.063  -3.560  -2.253  0.00  0.00     0.001 A 
ATOM     16  C   LIG d   1      18.791  -3.952  -2.675  0.00  0.00     0.008 A 
BRANCH  13  17
ATOM     17  C   LIG d   1      19.815   0.195  -2.678  0.00  0.00     0.014 C 
ATOM     18  C   LIG d   1      20.862   0.697  -3.354  0.00  0.00     0.032 C 
BRANCH  18  19
ATOM     19  C   LIG d   1      21.163   2.129  -3.484  0.00  0.00     0.057 A 
ATOM     20  N   LIG d   1      20.070   2.930  -3.505  0.00  0.00    -0.248 NA
ATOM     21  C   LIG d   1      20.244   4.259  -3.602  0.00  0.00     0.069 A 
ATOM     22  C   LIG d   1      21.521   4.850  -3.702  0.00  0.00    -0.007 A 
ATOM     23  C   LIG d   1      19.133   5.089  -3.600  0.00  0.00     0.056 A 
ATOM     24  C   LIG d   1      22.633   4.004  -3.709  0.00  0.00     0.016 A 
ATOM     25  C   LIG d   1      21.657   6.245  -3.793  0.00  0.00     0.015 A 
ATOM     26  C   LIG d   1      22.452   2.629  -3.605  0.00  0.00     0.032 A 
ATOM     27  C   LIG d   1      20.527   7.059  -3.786  0.00  0.00     0.025 A 
ATOM     28  C   LIG d   1      19.268   6.474  -3.690  0.00  0.00     0.036 A 
ATOM     29 CL   LIG d   1      17.866   7.472  -3.684  0.00  0.00    -0.084 Cl
ENDBRANCH  18  19
ENDBRANCH  13  17
ENDBRANCH   1  11
BRANCH   1  30
ATOM     30  C   LIG d   1      15.959  -2.616  -4.723  0.00  0.00     0.025 C 
BRANCH  30  31
ATOM     31  C   LIG d   1      17.086  -1.773  -5.348  0.00  0.00     0.040 C 
BRANCH  31  32
ATOM     32  C   LIG d   1      17.075  -1.804  -6.866  0.00  0.00    -0.049 A 
ATOM     33  C   LIG d   1      18.218  -1.721  -7.702  0.00  0.00    -0.019 A 
ATOM     34  C   LIG d   1      18.005  -1.863  -9.098  0.00  0.00     0.011 A 
ATOM     35  C   LIG d   1      16.734  -2.025  -9.654  0.00  0.00     0.001 A 
ATOM     36  C   LIG d   1      15.623  -2.057  -8.830  0.00  0.00     0.001 A 
ATOM     37  C   LIG d   1      15.794  -1.952  -7.454  0.00  0.00     0.007 A 
BRANCH  33  38
ATOM     38  C   LIG d   1      19.659  -1.491  -7.208  0.00  0.00     0.078 C 
ATOM     39  C   LIG d   1      19.891  -0.072  -6.663  0.00  0.00     0.051 C 
ATOM     40  C   LIG d   1      20.120  -2.567  -6.220  0.00  0.00     0.051 C 
BRANCH  38  41
ATOM     41  O   LIG d   1      20.588  -1.605  -8.313  0.00  0.00    -0.386 OA
ATOM     42  H   LIG d   1      20.449  -0.822  -8.874  0.00  0.00     0.211 HD
ENDBRANCH  38  41
ENDBRANCH  33  38
ENDBRANCH  31  32
ENDBRANCH  30  31
ENDBRANCH   1  30
TORSDOF 13
ENDMDL
MODEL 6
REMARK minimizedAffinity -6.46369267REMARK CNNscore 0.161483318REMARK CNNaffinity 6.02358246REMARK  13 active torsions:
REMARK  status: ('A' for Active; 'I' for Inactive)
REMARK    1  A    between atoms: S_2  and  C_10 
REMARK    2  A    between atoms: S_2  and  C_13 
REMARK    3  A    between atoms: O_5  and  C_23 
REMARK    4  A    between atoms: C_7  and  C_10 
REMARK    5  A    between atoms: C_7  and  C_11 
REMARK    6  A    between atoms: C_11  and  C_12 
REMARK    7  A    between atoms: C_13  and  C_15 
REMARK    8  A    between atoms: C_13  and  C_14 
REMARK    9  A    between atoms: C_14  and  C_16 
REMARK   10  A    between atoms: C_16  and  C_19 
REMARK   11  A    between atoms: C_20  and  C_23 
REMARK   12  A    between atoms: C_21  and  C_28 
REMARK   13  A    between atoms: C_32  and  C_33 
ROOT
ATOM      1  C   LIG d   1       9.350  20.347   1.225  0.00  0.00     0.080 C 
ENDROOT
BRANCH   1   2
ATOM      2  S   LIG d   1       8.363  20.706  -0.285  0.00  0.00    -0.159 SA
BRANCH   2   3
ATOM      3  C   LIG d   1       7.839  22.405   0.119  0.00  0.00     0.084 C 
BRANCH   3   4
ATOM      4  C   LIG d   1       8.414  23.378  -0.891  0.00  0.00    -0.022 A 
ATOM      5  C   LIG d   1       9.807  23.924  -0.627  0.00  0.00     0.011 A 
ATOM      6  C   LIG d   1       8.621  24.825  -0.467  0.00  0.00     0.011 A 
BRANCH   4   7
ATOM      7  C   LIG d   1       8.059  23.098  -2.351  0.00  0.00     0.123 C 
BRANCH   7   8
ATOM      8  C   LIG d   1       6.546  22.981  -2.600  0.00  0.00     0.173 C 
ATOM      9  O   LIG d   1       6.132  21.820  -2.890  0.00  0.00    -0.648 OA
ATOM     10  O   LIG d   1       5.894  24.056  -2.482  0.00  0.00    -0.648 OA
ENDBRANCH   7   8
ENDBRANCH   4   7
ENDBRANCH   3   4
ENDBRANCH   2   3
ENDBRANCH   1   2
BRANCH   1  11
ATOM     11  C   LIG d   1       8.958  19.017   1.856  0.00  0.00    -0.043 A 
ATOM     12  C   LIG d   1       9.272  18.712   3.192  0.00  0.00     0.019 A 
ATOM     13  C   LIG d   1       8.934  17.477   3.763  0.00  0.00    -0.036 A 
ATOM     14  C   LIG d   1       8.241  16.543   2.988  0.00  0.00     0.011 A 
ATOM     15  C   LIG d   1       7.897  16.839   1.668  0.00  0.00     0.001 A 
ATOM     16  C   LIG d   1       8.259  18.063   1.103  0.00  0.00     0.008 A 
BRANCH  13  17
ATOM     17  C   LIG d   1       9.428  17.180   5.115  0.00  0.00     0.014 C 
ATOM     18  C   LIG d   1      10.662  17.460   5.566  0.00  0.00     0.032 C 
BRANCH  18  19
ATOM     19  C   LIG d   1      11.130  17.201   6.934  0.00  0.00     0.057 A 
ATOM     20  N   LIG d   1      12.247  17.885   7.281  0.00  0.00    -0.248 NA
ATOM     21  C   LIG d   1      12.742  17.729   8.521  0.00  0.00     0.069 A 
ATOM     22  C   LIG d   1      12.152  16.866   9.468  0.00  0.00    -0.007 A 
ATOM     23  C   LIG d   1      13.871  18.442   8.893  0.00  0.00     0.056 A 
ATOM     24  C   LIG d   1      11.019  16.147   9.080  0.00  0.00     0.016 A 
ATOM     25  C   LIG d   1      12.698  16.740  10.756  0.00  0.00     0.015 A 
ATOM     26  C   LIG d   1      10.504  16.312   7.798  0.00  0.00     0.032 A 
ATOM     27  C   LIG d   1      13.831  17.469  11.109  0.00  0.00     0.025 A 
ATOM     28  C   LIG d   1      14.413  18.317  10.173  0.00  0.00     0.036 A 
ATOM     29 CL   LIG d   1      15.815  19.220  10.599  0.00  0.00    -0.084 Cl
ENDBRANCH  18  19
ENDBRANCH  13  17
ENDBRANCH   1  11
BRANCH   1  30
ATOM     30  C   LIG d   1      10.848  20.397   0.858  0.00  0.00     0.025 C 
BRANCH  30  31
ATOM     31  C   LIG d   1      11.555  21.608   1.494  0.00  0.00     0.040 C 
BRANCH  31  32
ATOM     32  C   LIG d   1      12.105  21.311   2.878  0.00  0.00    -0.049 A 
ATOM     33  C   LIG d   1      12.051  22.188   3.992  0.00  0.00    -0.019 A 
ATOM     34  C   LIG d   1      12.539  21.687   5.227  0.00  0.00     0.011 A 
ATOM     35  C   LIG d   1      13.099  20.414   5.356  0.00  0.00     0.001 A 
ATOM     36  C   LIG d   1      13.188  19.588   4.250  0.00  0.00     0.001 A 
ATOM     37  C   LIG d   1      12.693  20.031   3.029  0.00  0.00     0.007 A 
BRANCH  33  38
ATOM     38  C   LIG d   1      11.506  23.628   3.959  0.00  0.00     0.078 C 
ATOM     39  C   LIG d   1      11.210  24.194   5.358  0.00  0.00     0.051 C 
ATOM     40  C   LIG d   1      12.388  24.571   3.134  0.00  0.00     0.051 C 
BRANCH  38  41
ATOM     41  O   LIG d   1      10.226  23.660   3.283  0.00  0.00    -0.386 OA
ATOM     42  H   LIG d   1       9.588  23.226   3.876  0.00  0.00     0.211 HD
ENDBRANCH  38  41
ENDBRANCH  33  38
ENDBRANCH  31  32
ENDBRANCH  30  31
ENDBRANCH   1  30
TORSDOF 13
ENDMDL
MODEL 7
REMARK minimizedAffinity -6.62773466REMARK CNNscore 0.159805372REMARK CNNaffinity 6.09231806REMARK  13 active torsions:
REMARK  status: ('A' for Active; 'I' for Inactive)
REMARK    1  A    between atoms: S_2  and  C_10 
REMARK    2  A    between atoms: S_2  and  C_13 
REMARK    3  A    between atoms: O_5  and  C_23 
REMARK    4  A    between atoms: C_7  and  C_10 
REMARK    5  A    between atoms: C_7  and  C_11 
REMARK    6  A    between atoms: C_11  and  C_12 
REMARK    7  A    between atoms: C_13  and  C_15 
REMARK    8  A    between atoms: C_13  and  C_14 
REMARK    9  A    between atoms: C_14  and  C_16 
REMARK   10  A    between atoms: C_16  and  C_19 
REMARK   11  A    between atoms: C_20  and  C_23 
REMARK   12  A    between atoms: C_21  and  C_28 
REMARK   13  A    between atoms: C_32  and  C_33 
ROOT
ATOM      1  C   LIG d   1      10.249  21.119   1.672  0.00  0.00     0.080 C 
ENDROOT
BRANCH   1   2
ATOM      2  S   LIG d   1      10.174  21.920   0.018  0.00  0.00    -0.159 SA
BRANCH   2   3
ATOM      3  C   LIG d   1       8.581  22.790   0.200  0.00  0.00     0.084 C 
BRANCH   3   4
ATOM      4  C   LIG d   1       8.689  24.192  -0.365  0.00  0.00    -0.022 A 
ATOM      5  C   LIG d   1       9.816  25.072   0.149  0.00  0.00     0.011 A 
ATOM      6  C   LIG d   1       8.406  25.369   0.557  0.00  0.00     0.011 A 
BRANCH   4   7
ATOM      7  C   LIG d   1       8.337  24.334  -1.845  0.00  0.00     0.123 C 
BRANCH   7   8
ATOM      8  C   LIG d   1       7.006  23.663  -2.224  0.00  0.00     0.173 C 
ATOM      9  O   LIG d   1       5.971  24.185  -1.716  0.00  0.00    -0.648 OA
ATOM     10  O   LIG d   1       7.103  22.673  -3.002  0.00  0.00    -0.648 OA
ENDBRANCH   7   8
ENDBRANCH   4   7
ENDBRANCH   3   4
ENDBRANCH   2   3
ENDBRANCH   1   2
BRANCH   1  11
ATOM     11  C   LIG d   1      11.298  21.765   2.568  0.00  0.00    -0.043 A 
ATOM     12  C   LIG d   1      11.862  21.079   3.659  0.00  0.00     0.019 A 
ATOM     13  C   LIG d   1      12.808  21.685   4.498  0.00  0.00    -0.036 A 
ATOM     14  C   LIG d   1      13.217  22.992   4.220  0.00  0.00     0.011 A 
ATOM     15  C   LIG d   1      12.688  23.679   3.126  0.00  0.00     0.001 A 
ATOM     16  C   LIG d   1      11.730  23.073   2.311  0.00  0.00     0.008 A 
BRANCH  13  17
ATOM     17  C   LIG d   1      13.236  20.955   5.700  0.00  0.00     0.014 C 
ATOM     18  C   LIG d   1      12.480  20.081   6.384  0.00  0.00     0.032 C 
BRANCH  18  19
ATOM     19  C   LIG d   1      12.935  19.321   7.556  0.00  0.00     0.057 A 
ATOM     20  N   LIG d   1      13.992  19.871   8.202  0.00  0.00    -0.248 NA
ATOM     21  C   LIG d   1      14.470  19.258   9.298  0.00  0.00     0.069 A 
ATOM     22  C   LIG d   1      13.924  18.054   9.791  0.00  0.00    -0.007 A 
ATOM     23  C   LIG d   1      15.536  19.825   9.980  0.00  0.00     0.056 A 
ATOM     24  C   LIG d   1      12.854  17.488   9.092  0.00  0.00     0.016 A 
ATOM     25  C   LIG d   1      14.449  17.452  10.946  0.00  0.00     0.015 A 
ATOM     26  C   LIG d   1      12.357  18.125   7.960  0.00  0.00     0.032 A 
ATOM     27  C   LIG d   1      15.518  18.041  11.616  0.00  0.00     0.025 A 
ATOM     28  C   LIG d   1      16.057  19.227  11.128  0.00  0.00     0.036 A 
ATOM     29 CL   LIG d   1      17.380  19.960  11.948  0.00  0.00    -0.084 Cl
ENDBRANCH  18  19
ENDBRANCH  13  17
ENDBRANCH   1  11
BRANCH   1  30
ATOM     30  C   LIG d   1       8.842  21.158   2.304  0.00  0.00     0.025 C 
BRANCH  30  31
ATOM     31  C   LIG d   1       8.147  19.785   2.245  0.00  0.00     0.040 C 
BRANCH  31  32
ATOM     32  C   LIG d   1       8.815  18.747   3.129  0.00  0.00    -0.049 A 
ATOM     33  C   LIG d   1       9.335  17.502   2.691  0.00  0.00    -0.019 A 
ATOM     34  C   LIG d   1      10.007  16.711   3.659  0.00  0.00     0.011 A 
ATOM     35  C   LIG d   1      10.118  17.091   4.998  0.00  0.00     0.001 A 
ATOM     36  C   LIG d   1       9.564  18.286   5.421  0.00  0.00     0.001 A 
ATOM     37  C   LIG d   1       8.925  19.103   4.496  0.00  0.00     0.007 A 
BRANCH  33  38
ATOM     38  C   LIG d   1       9.227  16.954   1.256  0.00  0.00     0.078 C 
ATOM     39  C   LIG d   1       9.814  17.907   0.201  0.00  0.00     0.051 C 
ATOM     40  C   LIG d   1       9.790  15.536   1.123  0.00  0.00     0.051 C 
BRANCH  38  41
ATOM     41  O   LIG d   1       7.836  16.819   0.879  0.00  0.00    -0.386 OA
ATOM     42  H   LIG d   1       7.489  17.722   0.768  0.00  0.00     0.211 HD
ENDBRANCH  38  41
ENDBRANCH  33  38
ENDBRANCH  31  32
ENDBRANCH  30  31
ENDBRANCH   1  30
TORSDOF 13
ENDMDL
MODEL 8
REMARK minimizedAffinity -7.41167736REMARK CNNscore 0.151331395REMARK CNNaffinity 5.98336744REMARK  13 active torsions:
REMARK  status: ('A' for Active; 'I' for Inactive)
REMARK    1  A    between atoms: S_2  and  C_10 
REMARK    2  A    between atoms: S_2  and  C_13 
REMARK    3  A    between atoms: O_5  and  C_23 
REMARK    4  A    between atoms: C_7  and  C_10 
REMARK    5  A    between atoms: C_7  and  C_11 
REMARK    6  A    between atoms: C_11  and  C_12 
REMARK    7  A    between atoms: C_13  and  C_15 
REMARK    8  A    between atoms: C_13  and  C_14 
REMARK    9  A    between atoms: C_14  and  C_16 
REMARK   10  A    between atoms: C_16  and  C_19 
REMARK   11  A    between atoms: C_20  and  C_23 
REMARK   12  A    between atoms: C_21  and  C_28 
REMARK   13  A    between atoms: C_32  and  C_33 
ROOT
ATOM      1  C   LIG d   1       9.800  20.172  -0.205  0.00  0.00     0.080 C 
ENDROOT
BRANCH   1   2
ATOM      2  S   LIG d   1       8.160  20.927  -0.559  0.00  0.00    -0.159 SA
BRANCH   2   3
ATOM      3  C   LIG d   1       8.678  22.149  -1.810  0.00  0.00     0.084 C 
BRANCH   3   4
ATOM      4  C   LIG d   1       7.529  23.088  -2.123  0.00  0.00    -0.022 A 
ATOM      5  C   LIG d   1       6.131  22.496  -2.171  0.00  0.00     0.011 A 
ATOM      6  C   LIG d   1       6.795  22.920  -3.445  0.00  0.00     0.011 A 
BRANCH   4   7
ATOM      7  C   LIG d   1       7.653  24.495  -1.540  0.00  0.00     0.123 C 
BRANCH   7   8
ATOM      8  C   LIG d   1       6.851  24.693  -0.244  0.00  0.00     0.173 C 
ATOM      9  O   LIG d   1       5.784  25.365  -0.362  0.00  0.00    -0.648 OA
ATOM     10  O   LIG d   1       7.347  24.156   0.786  0.00  0.00    -0.648 OA
ENDBRANCH   7   8
ENDBRANCH   4   7
ENDBRANCH   3   4
ENDBRANCH   2   3
ENDBRANCH   1   2
BRANCH   1  11
ATOM     11  C   LIG d   1      10.565  20.950   0.858  0.00  0.00    -0.043 A 
ATOM     12  C   LIG d   1      10.924  20.365   2.086  0.00  0.00     0.019 A 
ATOM     13  C   LIG d   1      11.604  21.090   3.074  0.00  0.00    -0.036 A 
ATOM     14  C   LIG d   1      11.957  22.418   2.815  0.00  0.00     0.011 A 
ATOM     15  C   LIG d   1      11.631  23.006   1.591  0.00  0.00     0.001 A 
ATOM     16  C   LIG d   1      10.934  22.281   0.623  0.00  0.00     0.008 A 
BRANCH  13  17
ATOM     17  C   LIG d   1      11.810  20.453   4.383  0.00  0.00     0.014 C 
ATOM     18  C   LIG d   1      11.440  19.202   4.700  0.00  0.00     0.032 C 
BRANCH  18  19
ATOM     19  C   LIG d   1      11.694  18.559   5.996  0.00  0.00     0.057 A 
ATOM     20  N   LIG d   1      12.771  19.045   6.660  0.00  0.00    -0.248 NA
ATOM     21  C   LIG d   1      13.074  18.533   7.864  0.00  0.00     0.069 A 
ATOM     22  C   LIG d   1      12.324  17.495   8.456  0.00  0.00    -0.007 A 
ATOM     23  C   LIG d   1      14.160  19.041   8.562  0.00  0.00     0.056 A 
ATOM     24  C   LIG d   1      11.236  16.987   7.742  0.00  0.00     0.016 A 
ATOM     25  C   LIG d   1      12.671  16.995   9.722  0.00  0.00     0.015 A 
ATOM     26  C   LIG d   1      10.920  17.520   6.496  0.00  0.00     0.032 A 
ATOM     27  C   LIG d   1      13.764  17.523  10.405  0.00  0.00     0.025 A 
ATOM     28  C   LIG d   1      14.505  18.544   9.819  0.00  0.00     0.036 A 
ATOM     29 CL   LIG d   1      15.859  19.200  10.655  0.00  0.00    -0.084 Cl
ENDBRANCH  18  19
ENDBRANCH  13  17
ENDBRANCH   1  11
BRANCH   1  30
ATOM     30  C   LIG d   1       9.588  18.697   0.194  0.00  0.00     0.025 C 
BRANCH  30  31
ATOM     31  C   LIG d   1       8.121  18.406   0.560  0.00  0.00     0.040 C 
BRANCH  31  32
ATOM     32  C   LIG d   1       7.929  18.104   2.035  0.00  0.00    -0.049 A 
ATOM     33  C   LIG d   1       7.921  16.810   2.618  0.00  0.00    -0.019 A 
ATOM     34  C   LIG d   1       7.820  16.744   4.031  0.00  0.00     0.011 A 
ATOM     35  C   LIG d   1       7.680  17.879   4.832  0.00  0.00     0.001 A 
ATOM     36  C   LIG d   1       7.640  19.132   4.245  0.00  0.00     0.001 A 
ATOM     37  C   LIG d   1       7.767  19.240   2.866  0.00  0.00     0.007 A 
BRANCH  33  38
ATOM     38  C   LIG d   1       8.016  15.487   1.834  0.00  0.00     0.078 C 
ATOM     39  C   LIG d   1       9.431  15.201   1.303  0.00  0.00     0.051 C 
ATOM     40  C   LIG d   1       7.447  14.299   2.615  0.00  0.00     0.051 C 
BRANCH  38  41
ATOM     41  O   LIG d   1       7.196  15.554   0.644  0.00  0.00    -0.386 OA
ATOM     42  H   LIG d   1       7.638  16.170   0.035  0.00  0.00     0.211 HD
ENDBRANCH  38  41
ENDBRANCH  33  38
ENDBRANCH  31  32
ENDBRANCH  30  31
ENDBRANCH   1  30
TORSDOF 13
ENDMDL
MODEL 9
REMARK minimizedAffinity -6.80635977REMARK CNNscore 0.147056162REMARK CNNaffinity 6.14712143REMARK  13 active torsions:
REMARK  status: ('A' for Active; 'I' for Inactive)
REMARK    1  A    between atoms: S_2  and  C_10 
REMARK    2  A    between atoms: S_2  and  C_13 
REMARK    3  A    between atoms: O_5  and  C_23 
REMARK    4  A    between atoms: C_7  and  C_10 
REMARK    5  A    between atoms: C_7  and  C_11 
REMARK    6  A    between atoms: C_11  and  C_12 
REMARK    7  A    between atoms: C_13  and  C_15 
REMARK    8  A    between atoms: C_13  and  C_14 
REMARK    9  A    between atoms: C_14  and  C_16 
REMARK   10  A    between atoms: C_16  and  C_19 
REMARK   11  A    between atoms: C_20  and  C_23 
REMARK   12  A    between atoms: C_21  and  C_28 
REMARK   13  A    between atoms: C_32  and  C_33 
ROOT
ATOM      1  C   LIG d   1      21.511   7.070  -4.189  0.00  0.00     0.080 C 
ENDROOT
BRANCH   1   2
ATOM      2  S   LIG d   1      20.247   6.969  -5.522  0.00  0.00    -0.159 SA
BRANCH   2   3
ATOM      3  C   LIG d   1      19.595   5.304  -5.165  0.00  0.00     0.084 C 
BRANCH   3   4
ATOM      4  C   LIG d   1      19.113   4.651  -6.445  0.00  0.00    -0.022 A 
ATOM      5  C   LIG d   1      18.386   5.527  -7.451  0.00  0.00     0.011 A 
ATOM      6  C   LIG d   1      17.614   4.510  -6.668  0.00  0.00     0.011 A 
BRANCH   4   7
ATOM      7  C   LIG d   1      20.032   3.574  -7.020  0.00  0.00     0.123 C 
BRANCH   7   8
ATOM      8  C   LIG d   1      20.462   2.522  -5.985  0.00  0.00     0.173 C 
ATOM      9  O   LIG d   1      21.705   2.464  -5.754  0.00  0.00    -0.648 OA
ATOM     10  O   LIG d   1      19.523   1.841  -5.484  0.00  0.00    -0.648 OA
ENDBRANCH   7   8
ENDBRANCH   4   7
ENDBRANCH   3   4
ENDBRANCH   2   3
ENDBRANCH   1   2
BRANCH   1  11
ATOM     11  C   LIG d   1      21.098   8.041  -3.090  0.00  0.00    -0.043 A 
ATOM     12  C   LIG d   1      21.900   8.255  -1.954  0.00  0.00     0.019 A 
ATOM     13  C   LIG d   1      21.507   9.129  -0.931  0.00  0.00    -0.036 A 
ATOM     14  C   LIG d   1      20.301   9.824  -1.064  0.00  0.00     0.011 A 
ATOM     15  C   LIG d   1      19.505   9.643  -2.197  0.00  0.00     0.001 A 
ATOM     16  C   LIG d   1      19.896   8.753  -3.198  0.00  0.00     0.008 A 
BRANCH  13  17
ATOM     17  C   LIG d   1      22.327   9.184   0.287  0.00  0.00     0.014 C 
ATOM     18  C   LIG d   1      22.920   8.128   0.868  0.00  0.00     0.032 C 
BRANCH  18  19
ATOM     19  C   LIG d   1      23.777   8.202   2.059  0.00  0.00     0.057 A 
ATOM     20  N   LIG d   1      23.447   9.190   2.925  0.00  0.00    -0.248 NA
ATOM     21  C   LIG d   1      24.162   9.327   4.054  0.00  0.00     0.069 A 
ATOM     22  C   LIG d   1      25.256   8.491   4.363  0.00  0.00    -0.007 A 
ATOM     23  C   LIG d   1      23.816  10.320   4.958  0.00  0.00     0.056 A 
ATOM     24  C   LIG d   1      25.599   7.498   3.441  0.00  0.00     0.016 A 
ATOM     25  C   LIG d   1      25.971   8.664   5.559  0.00  0.00     0.015 A 
ATOM     26  C   LIG d   1      24.856   7.355   2.274  0.00  0.00     0.032 A 
ATOM     27  C   LIG d   1      25.603   9.666   6.454  0.00  0.00     0.025 A 
ATOM     28  C   LIG d   1      24.526  10.491   6.147  0.00  0.00     0.036 A 
ATOM     29 CL   LIG d   1      24.067  11.734   7.245  0.00  0.00    -0.084 Cl
ENDBRANCH  18  19
ENDBRANCH  13  17
ENDBRANCH   1  11
BRANCH   1  30
ATOM     30  C   LIG d   1      21.766   5.650  -3.643  0.00  0.00     0.025 C 
BRANCH  30  31
ATOM     31  C   LIG d   1      23.148   5.114  -4.060  0.00  0.00     0.040 C 
BRANCH  31  32
ATOM     32  C   LIG d   1      24.295   5.899  -3.449  0.00  0.00    -0.049 A 
ATOM     33  C   LIG d   1      25.242   6.673  -4.170  0.00  0.00    -0.019 A 
ATOM     34  C   LIG d   1      26.183   7.410  -3.406  0.00  0.00     0.011 A 
ATOM     35  C   LIG d   1      26.233   7.354  -2.012  0.00  0.00     0.001 A 
ATOM     36  C   LIG d   1      25.333   6.558  -1.324  0.00  0.00     0.001 A 
ATOM     37  C   LIG d   1      24.376   5.845  -2.036  0.00  0.00     0.007 A 
BRANCH  33  38
ATOM     38  C   LIG d   1      25.319   6.769  -5.706  0.00  0.00     0.078 C 
ATOM     39  C   LIG d   1      25.448   5.399  -6.390  0.00  0.00     0.051 C 
ATOM     40  C   LIG d   1      24.178   7.601  -6.299  0.00  0.00     0.051 C 
BRANCH  38  41
ATOM     41  O   LIG d   1      26.517   7.479  -6.100  0.00  0.00    -0.386 OA
ATOM     42  H   LIG d   1      27.266   6.889  -5.907  0.00  0.00     0.211 HD
ENDBRANCH  38  41
ENDBRANCH  33  38
ENDBRANCH  31  32
ENDBRANCH  30  31
ENDBRANCH   1  30
TORSDOF 13
ENDMDL
