MODEL 1
REMARK VINA RESULT:      -8.3      0.000      0.000
REMARK  9 active torsions:
REMARK  status: ('A' for Active; 'I' for Inactive)
REMARK    1  A    between atoms: N_3  and  C_17 
REMARK    2  A    between atoms: N_4  and  C_18 
REMARK       I    between atoms: N_5  and  C_19 
REMARK       I    between atoms: N_6  and  C_20 
REMARK       I    between atoms: N_7  and  C_19 
REMARK       I    between atoms: N_8  and  C_20 
REMARK       I    between atoms: N_9  and  C_21 
REMARK    3  A    between atoms: N_9  and  C_23 
REMARK       I    between atoms: N_10  and  C_22 
REMARK    4  A    between atoms: N_10  and  C_24 
REMARK       I    between atoms: N_11  and  C_21 
REMARK       I    between atoms: N_12  and  C_22 
REMARK    5  A    between atoms: C_13  and  C_14 
REMARK    6  A    between atoms: C_13  and  C_15 
REMARK    7  A    between atoms: C_14  and  C_16 
REMARK    8  A    between atoms: C_15  and  C_17 
REMARK    9  A    between atoms: C_16  and  C_18 
ROOT
ATOM      1  C   LIG d   1       5.690  14.169   2.273  0.00  0.00     0.002 C 
ENDROOT
BRANCH   1   2
ATOM      2  C   LIG d   1       5.791  12.993   1.302  0.00  0.00     0.002 C 
BRANCH   2   3
ATOM      3  C   LIG d   1       5.103  11.749   1.865  0.00  0.00     0.022 C 
BRANCH   3   4
ATOM      4  C   LIG d   1       6.063  10.563   1.922  0.00  0.00     0.152 C 
BRANCH   4   5
ATOM      5  N   LIG d   1       5.336   9.359   2.313  0.00  0.00    -0.261 NA
ATOM      6  C   LIG d   1       5.331   8.979   3.540  0.00  0.00     0.197 C 
ATOM      7  N   LIG d   1       4.624   7.863   3.869  0.00  0.00    -0.190 NA
ATOM      8  N   LIG d   1       5.921   9.597   4.597  0.00  0.00    -0.271 NA
ATOM      9  C   LIG d   1       4.601   6.823   3.101  0.00  0.00     0.180 C 
ATOM     10  N   LIG d   1       3.931   5.657   3.369  0.00  0.00    -0.331 N 
ATOM     11  N   LIG d   1       5.258   6.684   1.909  0.00  0.00    -0.272 NA
ATOM     12  H   LIG d   1       4.400   4.836   3.012  0.00  0.00     0.168 HD
ATOM     13  H   LIG d   1       5.584   7.606   1.603  0.00  0.00     0.127 HD
ATOM     14  H   LIG d   1       4.651   6.312   1.187  0.00  0.00     0.127 HD
ATOM     15  H   LIG d   1       5.880  10.603   4.565  0.00  0.00     0.127 HD
ATOM     16  H   LIG d   1       5.545   9.228   5.463  0.00  0.00     0.127 HD
BRANCH  10  17
ATOM     17  C   LIG d   1       2.999   5.409   4.392  0.00  0.00     0.034 A 
ATOM     18  C   LIG d   1       3.464   5.122   5.685  0.00  0.00     0.031 A 
ATOM     19  C   LIG d   1       2.575   4.847   6.730  0.00  0.00     0.026 A 
ATOM     20  C   LIG d   1       1.205   4.845   6.488  0.00  0.00     0.034 A 
ATOM     21 CL   LIG d   1       0.108   4.503   7.768  0.00  0.00    -0.084 Cl
ATOM     22  C   LIG d   1       0.721   5.113   5.213  0.00  0.00     0.026 A 
ATOM     23  C   LIG d   1       1.615   5.390   4.174  0.00  0.00     0.031 A 
ENDBRANCH  10  17
ENDBRANCH   4   5
ENDBRANCH   3   4
ENDBRANCH   2   3
ENDBRANCH   1   2
BRANCH   1  24
ATOM     24  C   LIG d   1       6.316  13.829   3.625  0.00  0.00     0.022 C 
BRANCH  24  25
ATOM     25  C   LIG d   1       7.841  13.792   3.538  0.00  0.00     0.152 C 
BRANCH  25  26
ATOM     26  N   LIG d   1       8.318  14.785   2.579  0.00  0.00    -0.261 NA
ATOM     27  C   LIG d   1       9.565  14.838   2.268  0.00  0.00     0.197 C 
ATOM     28  N   LIG d   1       9.987  15.773   1.367  0.00  0.00    -0.190 NA
ATOM     29  N   LIG d   1      10.547  14.008   2.706  0.00  0.00    -0.271 NA
ATOM     30  C   LIG d   1       9.381  16.912   1.217  0.00  0.00     0.180 C 
ATOM     31  N   LIG d   1       9.856  17.765   0.262  0.00  0.00    -0.331 N 
ATOM     32  N   LIG d   1       8.259  17.328   1.867  0.00  0.00    -0.272 NA
ATOM     33  H   LIG d   1      10.630  17.360  -0.252  0.00  0.00     0.168 HD
ATOM     34  H   LIG d   1       7.818  16.533   2.338  0.00  0.00     0.127 HD
ATOM     35  H   LIG d   1       7.602  17.783   1.245  0.00  0.00     0.127 HD
ATOM     36  H   LIG d   1      10.255  13.055   2.861  0.00  0.00     0.127 HD
ATOM     37  H   LIG d   1      11.360  14.073   2.105  0.00  0.00     0.127 HD
BRANCH  31  38
ATOM     38  C   LIG d   1       9.838  19.172   0.194  0.00  0.00     0.034 A 
ATOM     39  C   LIG d   1       8.926  19.779  -0.687  0.00  0.00     0.031 A 
ATOM     40  C   LIG d   1       8.813  21.171  -0.770  0.00  0.00     0.026 A 
ATOM     41  C   LIG d   1       9.609  21.976   0.037  0.00  0.00     0.034 A 
ATOM     42 CL   LIG d   1       9.471  23.687  -0.057  0.00  0.00    -0.084 Cl
ATOM     43  C   LIG d   1      10.514  21.399   0.922  0.00  0.00     0.026 A 
ATOM     44  C   LIG d   1      10.622  20.006   1.001  0.00  0.00     0.031 A 
ENDBRANCH  31  38
ENDBRANCH  25  26
ENDBRANCH  24  25
ENDBRANCH   1  24
TORSDOF 9
ENDMDL
MODEL 2
REMARK VINA RESULT:      -7.7      8.651     12.604
REMARK  9 active torsions:
REMARK  status: ('A' for Active; 'I' for Inactive)
REMARK    1  A    between atoms: N_3  and  C_17 
REMARK    2  A    between atoms: N_4  and  C_18 
REMARK       I    between atoms: N_5  and  C_19 
REMARK       I    between atoms: N_6  and  C_20 
REMARK       I    between atoms: N_7  and  C_19 
REMARK       I    between atoms: N_8  and  C_20 
REMARK       I    between atoms: N_9  and  C_21 
REMARK    3  A    between atoms: N_9  and  C_23 
REMARK       I    between atoms: N_10  and  C_22 
REMARK    4  A    between atoms: N_10  and  C_24 
REMARK       I    between atoms: N_11  and  C_21 
REMARK       I    between atoms: N_12  and  C_22 
REMARK    5  A    between atoms: C_13  and  C_14 
REMARK    6  A    between atoms: C_13  and  C_15 
REMARK    7  A    between atoms: C_14  and  C_16 
REMARK    8  A    between atoms: C_15  and  C_17 
REMARK    9  A    between atoms: C_16  and  C_18 
ROOT
ATOM      1  C   LIG d   1       9.453  16.391   4.848  0.00  0.00     0.002 C 
ENDROOT
BRANCH   1   2
ATOM      2  C   LIG d   1       9.297  15.282   3.807  0.00  0.00     0.002 C 
BRANCH   2   3
ATOM      3  C   LIG d   1      10.236  15.498   2.621  0.00  0.00     0.022 C 
BRANCH   3   4
ATOM      4  C   LIG d   1       9.556  16.303   1.515  0.00  0.00     0.152 C 
BRANCH   4   5
ATOM      5  N   LIG d   1       9.855  17.722   1.683  0.00  0.00    -0.261 NA
ATOM      6  C   LIG d   1       9.914  18.494   0.658  0.00  0.00     0.197 C 
ATOM      7  N   LIG d   1      10.176  19.815   0.858  0.00  0.00    -0.190 NA
ATOM      8  N   LIG d   1       9.694  18.159  -0.640  0.00  0.00    -0.271 NA
ATOM      9  C   LIG d   1      11.034  20.211   1.741  0.00  0.00     0.180 C 
ATOM     10  N   LIG d   1      11.367  21.519   1.988  0.00  0.00    -0.331 N 
ATOM     11  N   LIG d   1      11.782  19.409   2.558  0.00  0.00    -0.272 NA
ATOM     12  H   LIG d   1      12.332  21.640   2.261  0.00  0.00     0.168 HD
ATOM     13  H   LIG d   1      11.396  18.460   2.530  0.00  0.00     0.127 HD
ATOM     14  H   LIG d   1      11.758  19.727   3.520  0.00  0.00     0.127 HD
ATOM     15  H   LIG d   1       8.952  17.490  -0.776  0.00  0.00     0.127 HD
ATOM     16  H   LIG d   1       9.555  18.998  -1.191  0.00  0.00     0.127 HD
BRANCH  10  17
ATOM     17  C   LIG d   1      10.737  22.679   1.505  0.00  0.00     0.034 A 
ATOM     18  C   LIG d   1       9.963  23.453   2.384  0.00  0.00     0.031 A 
ATOM     19  C   LIG d   1       9.300  24.604   1.943  0.00  0.00     0.026 A 
ATOM     20  C   LIG d   1       9.396  24.988   0.610  0.00  0.00     0.034 A 
ATOM     21 CL   LIG d   1       8.579  26.399   0.062  0.00  0.00    -0.084 Cl
ATOM     22  C   LIG d   1      10.145  24.231  -0.283  0.00  0.00     0.026 A 
ATOM     23  C   LIG d   1      10.808  23.083   0.165  0.00  0.00     0.031 A 
ENDBRANCH  10  17
ENDBRANCH   4   5
ENDBRANCH   3   4
ENDBRANCH   2   3
ENDBRANCH   1   2
BRANCH   1  24
ATOM     24  C   LIG d   1      10.923  16.750   5.061  0.00  0.00     0.022 C 
BRANCH  24  25
ATOM     25  C   LIG d   1      11.088  17.770   6.186  0.00  0.00     0.152 C 
BRANCH  25  26
ATOM     26  N   LIG d   1      11.794  18.952   5.700  0.00  0.00    -0.261 NA
ATOM     27  C   LIG d   1      12.920  19.293   6.219  0.00  0.00     0.197 C 
ATOM     28  N   LIG d   1      13.564  20.401   5.746  0.00  0.00    -0.190 NA
ATOM     29  N   LIG d   1      13.604  18.626   7.186  0.00  0.00    -0.271 NA
ATOM     30  C   LIG d   1      12.922  21.406   5.230  0.00  0.00     0.180 C 
ATOM     31  N   LIG d   1      13.657  22.451   4.748  0.00  0.00    -0.331 N 
ATOM     32  N   LIG d   1      11.577  21.502   5.045  0.00  0.00    -0.272 NA
ATOM     33  H   LIG d   1      14.653  22.277   4.827  0.00  0.00     0.168 HD
ATOM     34  H   LIG d   1      11.144  20.581   5.164  0.00  0.00     0.127 HD
ATOM     35  H   LIG d   1      11.341  21.892   4.140  0.00  0.00     0.127 HD
ATOM     36  H   LIG d   1      13.513  17.623   7.150  0.00  0.00     0.127 HD
ATOM     37  H   LIG d   1      14.570  18.929   7.209  0.00  0.00     0.127 HD
BRANCH  31  38
ATOM     38  C   LIG d   1      13.352  23.823   4.652  0.00  0.00     0.034 A 
ATOM     39  C   LIG d   1      13.184  24.546   5.846  0.00  0.00     0.031 A 
ATOM     40  C   LIG d   1      12.932  25.923   5.832  0.00  0.00     0.026 A 
ATOM     41  C   LIG d   1      12.854  26.595   4.618  0.00  0.00     0.034 A 
ATOM     42 CL   LIG d   1      12.550  28.288   4.594  0.00  0.00    -0.084 Cl
ATOM     43  C   LIG d   1      13.024  25.903   3.424  0.00  0.00     0.026 A 
ATOM     44  C   LIG d   1      13.276  24.527   3.444  0.00  0.00     0.031 A 
ENDBRANCH  31  38
ENDBRANCH  25  26
ENDBRANCH  24  25
ENDBRANCH   1  24
TORSDOF 9
ENDMDL
MODEL 3
REMARK VINA RESULT:      -7.6      2.282      2.746
REMARK  9 active torsions:
REMARK  status: ('A' for Active; 'I' for Inactive)
REMARK    1  A    between atoms: N_3  and  C_17 
REMARK    2  A    between atoms: N_4  and  C_18 
REMARK       I    between atoms: N_5  and  C_19 
REMARK       I    between atoms: N_6  and  C_20 
REMARK       I    between atoms: N_7  and  C_19 
REMARK       I    between atoms: N_8  and  C_20 
REMARK       I    between atoms: N_9  and  C_21 
REMARK    3  A    between atoms: N_9  and  C_23 
REMARK       I    between atoms: N_10  and  C_22 
REMARK    4  A    between atoms: N_10  and  C_24 
REMARK       I    between atoms: N_11  and  C_21 
REMARK       I    between atoms: N_12  and  C_22 
REMARK    5  A    between atoms: C_13  and  C_14 
REMARK    6  A    between atoms: C_13  and  C_15 
REMARK    7  A    between atoms: C_14  and  C_16 
REMARK    8  A    between atoms: C_15  and  C_17 
REMARK    9  A    between atoms: C_16  and  C_18 
ROOT
ATOM      1  C   LIG d   1       7.122  13.603   5.700  0.00  0.00     0.002 C 
ENDROOT
BRANCH   1   2
ATOM      2  C   LIG d   1       6.531  12.668   4.644  0.00  0.00     0.002 C 
BRANCH   2   3
ATOM      3  C   LIG d   1       7.346  11.381   4.526  0.00  0.00     0.022 C 
BRANCH   3   4
ATOM      4  C   LIG d   1       7.116  10.701   3.178  0.00  0.00     0.152 C 
BRANCH   4   5
ATOM      5  N   LIG d   1       6.022   9.740   3.291  0.00  0.00    -0.261 NA
ATOM      6  C   LIG d   1       5.131   9.667   2.369  0.00  0.00     0.197 C 
ATOM      7  N   LIG d   1       4.138   8.745   2.501  0.00  0.00    -0.190 NA
ATOM      8  N   LIG d   1       5.077  10.383   1.215  0.00  0.00    -0.271 NA
ATOM      9  C   LIG d   1       3.589   8.498   3.645  0.00  0.00     0.180 C 
ATOM     10  N   LIG d   1       2.574   7.600   3.857  0.00  0.00    -0.331 N 
ATOM     11  N   LIG d   1       3.893   9.100   4.835  0.00  0.00    -0.272 NA
ATOM     12  H   LIG d   1       1.937   7.884   4.589  0.00  0.00     0.168 HD
ATOM     13  H   LIG d   1       4.776   9.609   4.729  0.00  0.00     0.127 HD
ATOM     14  H   LIG d   1       4.011   8.423   5.580  0.00  0.00     0.127 HD
ATOM     15  H   LIG d   1       5.975  10.553   0.791  0.00  0.00     0.127 HD
ATOM     16  H   LIG d   1       4.429   9.946   0.571  0.00  0.00     0.127 HD
BRANCH  10  17
ATOM     17  C   LIG d   1       2.060   6.646   2.962  0.00  0.00     0.034 A 
ATOM     18  C   LIG d   1       2.579   5.342   2.980  0.00  0.00     0.031 A 
ATOM     19  C   LIG d   1       2.114   4.365   2.093  0.00  0.00     0.026 A 
ATOM     20  C   LIG d   1       1.128   4.687   1.166  0.00  0.00     0.034 A 
ATOM     21 CL   LIG d   1       0.557   3.490   0.070  0.00  0.00    -0.084 Cl
ATOM     22  C   LIG d   1       0.608   5.975   1.119  0.00  0.00     0.026 A 
ATOM     23  C   LIG d   1       1.075   6.946   2.010  0.00  0.00     0.031 A 
ENDBRANCH  10  17
ENDBRANCH   4   5
ENDBRANCH   3   4
ENDBRANCH   2   3
ENDBRANCH   1   2
BRANCH   1  24
ATOM     24  C   LIG d   1       7.599  14.915   5.077  0.00  0.00     0.022 C 
BRANCH  24  25
ATOM     25  C   LIG d   1       8.894  14.717   4.291  0.00  0.00     0.152 C 
BRANCH  25  26
ATOM     26  N   LIG d   1       8.904  15.572   3.107  0.00  0.00    -0.261 NA
ATOM     27  C   LIG d   1       9.927  15.590   2.330  0.00  0.00     0.197 C 
ATOM     28  N   LIG d   1       9.913  16.395   1.227  0.00  0.00    -0.190 NA
ATOM     29  N   LIG d   1      11.049  14.832   2.446  0.00  0.00    -0.271 NA
ATOM     30  C   LIG d   1       9.230  17.500   1.187  0.00  0.00     0.180 C 
ATOM     31  N   LIG d   1       9.247  18.217   0.025  0.00  0.00    -0.331 N 
ATOM     32  N   LIG d   1       8.426  17.994   2.167  0.00  0.00    -0.272 NA
ATOM     33  H   LIG d   1       9.785  17.750  -0.697  0.00  0.00     0.168 HD
ATOM     34  H   LIG d   1       8.249  17.269   2.868  0.00  0.00     0.127 HD
ATOM     35  H   LIG d   1       7.553  18.357   1.802  0.00  0.00     0.127 HD
ATOM     36  H   LIG d   1      10.896  13.908   2.819  0.00  0.00     0.127 HD
ATOM     37  H   LIG d   1      11.560  14.819   1.572  0.00  0.00     0.127 HD
BRANCH  31  38
ATOM     38  C   LIG d   1       9.123  19.602  -0.204  0.00  0.00     0.034 A 
ATOM     39  C   LIG d   1       7.915  20.076  -0.744  0.00  0.00     0.031 A 
ATOM     40  C   LIG d   1       7.697  21.442  -0.949  0.00  0.00     0.026 A 
ATOM     41  C   LIG d   1       8.688  22.356  -0.607  0.00  0.00     0.034 A 
ATOM     42 CL   LIG d   1       8.424  24.037  -0.852  0.00  0.00    -0.084 Cl
ATOM     43  C   LIG d   1       9.889  21.912  -0.063  0.00  0.00     0.026 A 
ATOM     44  C   LIG d   1      10.100  20.544   0.140  0.00  0.00     0.031 A 
ENDBRANCH  31  38
ENDBRANCH  25  26
ENDBRANCH  24  25
ENDBRANCH   1  24
TORSDOF 9
ENDMDL
MODEL 4
REMARK VINA RESULT:      -7.5      7.648     11.921
REMARK  9 active torsions:
REMARK  status: ('A' for Active; 'I' for Inactive)
REMARK    1  A    between atoms: N_3  and  C_17 
REMARK    2  A    between atoms: N_4  and  C_18 
REMARK       I    between atoms: N_5  and  C_19 
REMARK       I    between atoms: N_6  and  C_20 
REMARK       I    between atoms: N_7  and  C_19 
REMARK       I    between atoms: N_8  and  C_20 
REMARK       I    between atoms: N_9  and  C_21 
REMARK    3  A    between atoms: N_9  and  C_23 
REMARK       I    between atoms: N_10  and  C_22 
REMARK    4  A    between atoms: N_10  and  C_24 
REMARK       I    between atoms: N_11  and  C_21 
REMARK       I    between atoms: N_12  and  C_22 
REMARK    5  A    between atoms: C_13  and  C_14 
REMARK    6  A    between atoms: C_13  and  C_15 
REMARK    7  A    between atoms: C_14  and  C_16 
REMARK    8  A    between atoms: C_15  and  C_17 
REMARK    9  A    between atoms: C_16  and  C_18 
ROOT
ATOM      1  C   LIG d   1       9.876  24.586  -0.777  0.00  0.00     0.002 C 
ENDROOT
BRANCH   1   2
ATOM      2  C   LIG d   1      10.047  23.375   0.141  0.00  0.00     0.002 C 
BRANCH   2   3
ATOM      3  C   LIG d   1      10.890  23.724   1.367  0.00  0.00     0.022 C 
BRANCH   3   4
ATOM      4  C   LIG d   1      11.729  22.531   1.820  0.00  0.00     0.152 C 
BRANCH   4   5
ATOM      5  N   LIG d   1      10.983  21.294   1.607  0.00  0.00    -0.261 NA
ATOM      6  C   LIG d   1      11.501  20.165   1.934  0.00  0.00     0.197 C 
ATOM      7  N   LIG d   1      10.766  19.036   1.737  0.00  0.00    -0.190 NA
ATOM      8  N   LIG d   1      12.710  19.950   2.515  0.00  0.00    -0.271 NA
ATOM      9  C   LIG d   1      10.029  18.879   0.687  0.00  0.00     0.180 C 
ATOM     10  N   LIG d   1       9.277  17.767   0.407  0.00  0.00    -0.331 N 
ATOM     11  N   LIG d   1       9.891  19.769  -0.344  0.00  0.00    -0.272 NA
ATOM     12  H   LIG d   1       9.214  17.566  -0.581  0.00  0.00     0.168 HD
ATOM     13  H   LIG d   1      10.275  20.673  -0.051  0.00  0.00     0.127 HD
ATOM     14  H   LIG d   1       8.918  19.908  -0.591  0.00  0.00     0.127 HD
ATOM     15  H   LIG d   1      12.969  20.640   3.202  0.00  0.00     0.127 HD
ATOM     16  H   LIG d   1      12.747  19.009   2.889  0.00  0.00     0.127 HD
BRANCH  10  17
ATOM     17  C   LIG d   1       8.990  16.681   1.253  0.00  0.00     0.034 A 
ATOM     18  C   LIG d   1       7.872  16.751   2.100  0.00  0.00     0.031 A 
ATOM     19  C   LIG d   1       7.559  15.704   2.973  0.00  0.00     0.026 A 
ATOM     20  C   LIG d   1       8.371  14.576   3.018  0.00  0.00     0.034 A 
ATOM     21 CL   LIG d   1       7.994  13.289   4.094  0.00  0.00    -0.084 Cl
ATOM     22  C   LIG d   1       9.491  14.489   2.199  0.00  0.00     0.026 A 
ATOM     23  C   LIG d   1       9.797  15.538   1.326  0.00  0.00     0.031 A 
ENDBRANCH  10  17
ENDBRANCH   4   5
ENDBRANCH   3   4
ENDBRANCH   2   3
ENDBRANCH   1   2
BRANCH   1  24
ATOM     24  C   LIG d   1       8.923  25.614  -0.170  0.00  0.00     0.022 C 
BRANCH  24  25
ATOM     25  C   LIG d   1       7.829  26.010  -1.160  0.00  0.00     0.152 C 
BRANCH  25  26
ATOM     26  N   LIG d   1       6.612  25.244  -0.905  0.00  0.00    -0.261 NA
ATOM     27  C   LIG d   1       6.278  24.280  -1.688  0.00  0.00     0.197 C 
ATOM     28  N   LIG d   1       5.138  23.575  -1.427  0.00  0.00    -0.190 NA
ATOM     29  N   LIG d   1       6.980  23.822  -2.758  0.00  0.00    -0.271 NA
ATOM     30  C   LIG d   1       4.120  24.107  -0.820  0.00  0.00     0.180 C 
ATOM     31  N   LIG d   1       3.040  23.309  -0.570  0.00  0.00    -0.331 N 
ATOM     32  N   LIG d   1       4.038  25.373  -0.329  0.00  0.00    -0.272 NA
ATOM     33  H   LIG d   1       3.200  22.354  -0.872  0.00  0.00     0.168 HD
ATOM     34  H   LIG d   1       4.970  25.796  -0.303  0.00  0.00     0.127 HD
ATOM     35  H   LIG d   1       3.608  25.403   0.588  0.00  0.00     0.127 HD
ATOM     36  H   LIG d   1       7.981  23.875  -2.658  0.00  0.00     0.127 HD
ATOM     37  H   LIG d   1       6.662  22.897  -3.020  0.00  0.00     0.127 HD
BRANCH  31  38
ATOM     38  C   LIG d   1       1.670  23.622  -0.465  0.00  0.00     0.034 A 
ATOM     39  C   LIG d   1       1.051  23.463   0.787  0.00  0.00     0.031 A 
ATOM     40  C   LIG d   1      -0.292  23.804   0.982  0.00  0.00     0.026 A 
ATOM     41  C   LIG d   1      -1.032  24.316  -0.078  0.00  0.00     0.034 A 
ATOM     42 CL   LIG d   1      -2.682  24.741   0.157  0.00  0.00    -0.084 Cl
ATOM     43  C   LIG d   1      -0.440  24.490  -1.324  0.00  0.00     0.026 A 
ATOM     44  C   LIG d   1       0.904  24.148  -1.512  0.00  0.00     0.031 A 
ENDBRANCH  31  38
ENDBRANCH  25  26
ENDBRANCH  24  25
ENDBRANCH   1  24
TORSDOF 9
ENDMDL
MODEL 5
REMARK VINA RESULT:      -7.5      1.510     13.803
REMARK  9 active torsions:
REMARK  status: ('A' for Active; 'I' for Inactive)
REMARK    1  A    between atoms: N_3  and  C_17 
REMARK    2  A    between atoms: N_4  and  C_18 
REMARK       I    between atoms: N_5  and  C_19 
REMARK       I    between atoms: N_6  and  C_20 
REMARK       I    between atoms: N_7  and  C_19 
REMARK       I    between atoms: N_8  and  C_20 
REMARK       I    between atoms: N_9  and  C_21 
REMARK    3  A    between atoms: N_9  and  C_23 
REMARK       I    between atoms: N_10  and  C_22 
REMARK    4  A    between atoms: N_10  and  C_24 
REMARK       I    between atoms: N_11  and  C_21 
REMARK       I    between atoms: N_12  and  C_22 
REMARK    5  A    between atoms: C_13  and  C_14 
REMARK    6  A    between atoms: C_13  and  C_15 
REMARK    7  A    between atoms: C_14  and  C_16 
REMARK    8  A    between atoms: C_15  and  C_17 
REMARK    9  A    between atoms: C_16  and  C_18 
ROOT
ATOM      1  C   LIG d   1       7.831  13.812   3.569  0.00  0.00     0.002 C 
ENDROOT
BRANCH   1   2
ATOM      2  C   LIG d   1       8.809  14.402   4.585  0.00  0.00     0.002 C 
BRANCH   2   3
ATOM      3  C   LIG d   1      10.234  14.429   4.032  0.00  0.00     0.022 C 
BRANCH   3   4
ATOM      4  C   LIG d   1      10.903  15.777   4.290  0.00  0.00     0.152 C 
BRANCH   4   5
ATOM      5  N   LIG d   1      10.663  16.670   3.159  0.00  0.00    -0.261 NA
ATOM      6  C   LIG d   1       9.821  17.634   3.267  0.00  0.00     0.197 C 
ATOM      7  N   LIG d   1       9.640  18.457   2.198  0.00  0.00    -0.190 NA
ATOM      8  N   LIG d   1       9.098  17.979   4.364  0.00  0.00    -0.271 NA
ATOM      9  C   LIG d   1       9.616  18.002   0.987  0.00  0.00     0.180 C 
ATOM     10  N   LIG d   1       9.421  18.761  -0.138  0.00  0.00    -0.331 N 
ATOM     11  N   LIG d   1       9.748  16.693   0.613  0.00  0.00    -0.272 NA
ATOM     12  H   LIG d   1       8.920  18.272  -0.867  0.00  0.00     0.168 HD
ATOM     13  H   LIG d   1      10.098  16.156   1.412  0.00  0.00     0.127 HD
ATOM     14  H   LIG d   1      10.408  16.585  -0.149  0.00  0.00     0.127 HD
ATOM     15  H   LIG d   1       9.594  17.878   5.237  0.00  0.00     0.127 HD
ATOM     16  H   LIG d   1       8.722  18.912   4.247  0.00  0.00     0.127 HD
BRANCH  10  17
ATOM     17  C   LIG d   1       9.403  20.162  -0.246  0.00  0.00     0.034 A 
ATOM     18  C   LIG d   1       8.344  20.783  -0.927  0.00  0.00     0.031 A 
ATOM     19  C   LIG d   1       8.295  22.173  -1.078  0.00  0.00     0.026 A 
ATOM     20  C   LIG d   1       9.317  22.960  -0.557  0.00  0.00     0.034 A 
ATOM     21 CL   LIG d   1       9.265  24.669  -0.745  0.00  0.00    -0.084 Cl
ATOM     22  C   LIG d   1      10.384  22.368   0.109  0.00  0.00     0.026 A 
ATOM     23  C   LIG d   1      10.425  20.979   0.260  0.00  0.00     0.031 A 
ENDBRANCH  10  17
ENDBRANCH   4   5
ENDBRANCH   3   4
ENDBRANCH   2   3
ENDBRANCH   1   2
BRANCH   1  24
ATOM     24  C   LIG d   1       7.884  12.285   3.568  0.00  0.00     0.022 C 
BRANCH  24  25
ATOM     25  C   LIG d   1       7.590  11.720   2.178  0.00  0.00     0.152 C 
BRANCH  25  26
ATOM     26  N   LIG d   1       6.718  10.553   2.279  0.00  0.00    -0.261 NA
ATOM     27  C   LIG d   1       5.508  10.610   1.849  0.00  0.00     0.197 C 
ATOM     28  N   LIG d   1       4.712   9.505   1.951  0.00  0.00    -0.190 NA
ATOM     29  N   LIG d   1       4.915  11.664   1.229  0.00  0.00    -0.271 NA
ATOM     30  C   LIG d   1       4.872   8.622   2.891  0.00  0.00     0.180 C 
ATOM     31  N   LIG d   1       4.051   7.531   2.886  0.00  0.00    -0.331 N 
ATOM     32  N   LIG d   1       5.833   8.627   3.856  0.00  0.00    -0.272 NA
ATOM     33  H   LIG d   1       3.423   7.537   2.090  0.00  0.00     0.168 HD
ATOM     34  H   LIG d   1       6.561   9.306   3.615  0.00  0.00     0.127 HD
ATOM     35  H   LIG d   1       6.236   7.709   4.000  0.00  0.00     0.127 HD
ATOM     36  H   LIG d   1       5.531  12.210   0.647  0.00  0.00     0.127 HD
ATOM     37  H   LIG d   1       4.081  11.363   0.739  0.00  0.00     0.127 HD
BRANCH  31  38
ATOM     38  C   LIG d   1       3.575   6.733   3.946  0.00  0.00     0.034 A 
ATOM     39  C   LIG d   1       2.745   5.644   3.630  0.00  0.00     0.031 A 
ATOM     40  C   LIG d   1       2.278   4.775   4.622  0.00  0.00     0.026 A 
ATOM     41  C   LIG d   1       2.644   4.983   5.947  0.00  0.00     0.034 A 
ATOM     42 CL   LIG d   1       2.076   3.916   7.170  0.00  0.00    -0.084 Cl
ATOM     43  C   LIG d   1       3.470   6.050   6.284  0.00  0.00     0.026 A 
ATOM     44  C   LIG d   1       3.935   6.915   5.287  0.00  0.00     0.031 A 
ENDBRANCH  31  38
ENDBRANCH  25  26
ENDBRANCH  24  25
ENDBRANCH   1  24
TORSDOF 9
ENDMDL
MODEL 6
REMARK VINA RESULT:      -7.5      3.864     13.511
REMARK  9 active torsions:
REMARK  status: ('A' for Active; 'I' for Inactive)
REMARK    1  A    between atoms: N_3  and  C_17 
REMARK    2  A    between atoms: N_4  and  C_18 
REMARK       I    between atoms: N_5  and  C_19 
REMARK       I    between atoms: N_6  and  C_20 
REMARK       I    between atoms: N_7  and  C_19 
REMARK       I    between atoms: N_8  and  C_20 
REMARK       I    between atoms: N_9  and  C_21 
REMARK    3  A    between atoms: N_9  and  C_23 
REMARK       I    between atoms: N_10  and  C_22 
REMARK    4  A    between atoms: N_10  and  C_24 
REMARK       I    between atoms: N_11  and  C_21 
REMARK       I    between atoms: N_12  and  C_22 
REMARK    5  A    between atoms: C_13  and  C_14 
REMARK    6  A    between atoms: C_13  and  C_15 
REMARK    7  A    between atoms: C_14  and  C_16 
REMARK    8  A    between atoms: C_15  and  C_17 
REMARK    9  A    between atoms: C_16  and  C_18 
ROOT
ATOM      1  C   LIG d   1      10.642  18.257   6.422  0.00  0.00     0.002 C 
ENDROOT
BRANCH   1   2
ATOM      2  C   LIG d   1      10.665  19.201   5.219  0.00  0.00     0.002 C 
BRANCH   2   3
ATOM      3  C   LIG d   1      12.064  19.771   4.988  0.00  0.00     0.022 C 
BRANCH   3   4
ATOM      4  C   LIG d   1      12.493  19.613   3.531  0.00  0.00     0.152 C 
BRANCH   4   5
ATOM      5  N   LIG d   1      11.796  20.594   2.703  0.00  0.00    -0.261 NA
ATOM      6  C   LIG d   1      11.014  20.203   1.762  0.00  0.00     0.197 C 
ATOM      7  N   LIG d   1      10.366  21.147   1.026  0.00  0.00    -0.190 NA
ATOM      8  N   LIG d   1      10.703  18.924   1.426  0.00  0.00    -0.271 NA
ATOM      9  C   LIG d   1      10.946  22.247   0.670  0.00  0.00     0.180 C 
ATOM     10  N   LIG d   1      10.369  23.236  -0.085  0.00  0.00    -0.331 N 
ATOM     11  N   LIG d   1      12.235  22.608   0.950  0.00  0.00    -0.272 NA
ATOM     12  H   LIG d   1      11.025  23.709  -0.690  0.00  0.00     0.168 HD
ATOM     13  H   LIG d   1      12.600  21.985   1.677  0.00  0.00     0.127 HD
ATOM     14  H   LIG d   1      12.291  23.559   1.297  0.00  0.00     0.127 HD
ATOM     15  H   LIG d   1      10.607  18.300   2.213  0.00  0.00     0.127 HD
ATOM     16  H   LIG d   1       9.882  18.916   0.832  0.00  0.00     0.127 HD
BRANCH  10  17
ATOM     17  C   LIG d   1       9.020  23.366  -0.457  0.00  0.00     0.034 A 
ATOM     18  C   LIG d   1       8.124  23.986   0.428  0.00  0.00     0.031 A 
ATOM     19  C   LIG d   1       6.767  24.120   0.111  0.00  0.00     0.026 A 
ATOM     20  C   LIG d   1       6.289  23.621  -1.096  0.00  0.00     0.034 A 
ATOM     21 CL   LIG d   1       4.621  23.777  -1.489  0.00  0.00    -0.084 Cl
ATOM     22  C   LIG d   1       7.153  22.990  -1.983  0.00  0.00     0.026 A 
ATOM     23  C   LIG d   1       8.508  22.863  -1.661  0.00  0.00     0.031 A 
ENDBRANCH  10  17
ENDBRANCH   4   5
ENDBRANCH   3   4
ENDBRANCH   2   3
ENDBRANCH   1   2
BRANCH   1  24
ATOM     24  C   LIG d   1      10.810  16.801   5.989  0.00  0.00     0.022 C 
BRANCH  24  25
ATOM     25  C   LIG d   1      10.258  16.572   4.582  0.00  0.00     0.152 C 
BRANCH  25  26
ATOM     26  N   LIG d   1       9.867  15.176   4.412  0.00  0.00    -0.261 NA
ATOM     27  C   LIG d   1      10.277  14.509   3.392  0.00  0.00     0.197 C 
ATOM     28  N   LIG d   1       9.901  13.203   3.256  0.00  0.00    -0.190 NA
ATOM     29  N   LIG d   1      11.119  14.947   2.420  0.00  0.00    -0.271 NA
ATOM     30  C   LIG d   1       8.781  12.752   3.736  0.00  0.00     0.180 C 
ATOM     31  N   LIG d   1       8.512  11.422   3.583  0.00  0.00    -0.331 N 
ATOM     32  N   LIG d   1       7.863  13.455   4.454  0.00  0.00    -0.272 NA
ATOM     33  H   LIG d   1       9.276  10.935   3.126  0.00  0.00     0.168 HD
ATOM     34  H   LIG d   1       8.271  14.343   4.762  0.00  0.00     0.127 HD
ATOM     35  H   LIG d   1       7.512  12.931   5.247  0.00  0.00     0.127 HD
ATOM     36  H   LIG d   1      11.825  15.594   2.734  0.00  0.00     0.127 HD
ATOM     37  H   LIG d   1      11.508  14.164   1.909  0.00  0.00     0.127 HD
BRANCH  31  38
ATOM     38  C   LIG d   1       7.285  10.740   3.463  0.00  0.00     0.034 A 
ATOM     39  C   LIG d   1       6.637  10.761   2.217  0.00  0.00     0.031 A 
ATOM     40  C   LIG d   1       5.443  10.062   2.006  0.00  0.00     0.026 A 
ATOM     41  C   LIG d   1       4.886   9.325   3.045  0.00  0.00     0.034 A 
ATOM     42 CL   LIG d   1       3.421   8.460   2.792  0.00  0.00    -0.084 Cl
ATOM     43  C   LIG d   1       5.512   9.282   4.286  0.00  0.00     0.026 A 
ATOM     44  C   LIG d   1       6.707   9.982   4.489  0.00  0.00     0.031 A 
ENDBRANCH  31  38
ENDBRANCH  25  26
ENDBRANCH  24  25
ENDBRANCH   1  24
TORSDOF 9
ENDMDL
MODEL 7
REMARK VINA RESULT:      -7.4      1.766      2.367
REMARK  9 active torsions:
REMARK  status: ('A' for Active; 'I' for Inactive)
REMARK    1  A    between atoms: N_3  and  C_17 
REMARK    2  A    between atoms: N_4  and  C_18 
REMARK       I    between atoms: N_5  and  C_19 
REMARK       I    between atoms: N_6  and  C_20 
REMARK       I    between atoms: N_7  and  C_19 
REMARK       I    between atoms: N_8  and  C_20 
REMARK       I    between atoms: N_9  and  C_21 
REMARK    3  A    between atoms: N_9  and  C_23 
REMARK       I    between atoms: N_10  and  C_22 
REMARK    4  A    between atoms: N_10  and  C_24 
REMARK       I    between atoms: N_11  and  C_21 
REMARK       I    between atoms: N_12  and  C_22 
REMARK    5  A    between atoms: C_13  and  C_14 
REMARK    6  A    between atoms: C_13  and  C_15 
REMARK    7  A    between atoms: C_14  and  C_16 
REMARK    8  A    between atoms: C_15  and  C_17 
REMARK    9  A    between atoms: C_16  and  C_18 
ROOT
ATOM      1  C   LIG d   1       7.745  13.059   3.290  0.00  0.00     0.002 C 
ENDROOT
BRANCH   1   2
ATOM      2  C   LIG d   1       8.049  11.674   2.718  0.00  0.00     0.002 C 
BRANCH   2   3
ATOM      3  C   LIG d   1       6.791  10.807   2.665  0.00  0.00     0.022 C 
BRANCH   3   4
ATOM      4  C   LIG d   1       6.346  10.391   4.065  0.00  0.00     0.152 C 
BRANCH   4   5
ATOM      5  N   LIG d   1       5.687   9.089   4.006  0.00  0.00    -0.261 NA
ATOM      6  C   LIG d   1       4.624   8.873   4.693  0.00  0.00     0.197 C 
ATOM      7  N   LIG d   1       4.027   7.653   4.595  0.00  0.00    -0.190 NA
ATOM      8  N   LIG d   1       3.968   9.751   5.496  0.00  0.00    -0.271 NA
ATOM      9  C   LIG d   1       4.718   6.563   4.524  0.00  0.00     0.180 C 
ATOM     10  N   LIG d   1       4.194   5.298   4.443  0.00  0.00    -0.331 N 
ATOM     11  N   LIG d   1       6.083   6.468   4.550  0.00  0.00    -0.272 NA
ATOM     12  H   LIG d   1       4.758   4.602   4.909  0.00  0.00     0.168 HD
ATOM     13  H   LIG d   1       6.480   7.400   4.400  0.00  0.00     0.127 HD
ATOM     14  H   LIG d   1       6.430   5.860   3.817  0.00  0.00     0.127 HD
ATOM     15  H   LIG d   1       3.946  10.696   5.146  0.00  0.00     0.127 HD
ATOM     16  H   LIG d   1       3.040   9.400   5.702  0.00  0.00     0.127 HD
BRANCH  10  17
ATOM     17  C   LIG d   1       2.855   4.928   4.226  0.00  0.00     0.034 A 
ATOM     18  C   LIG d   1       2.026   4.683   5.332  0.00  0.00     0.031 A 
ATOM     19  C   LIG d   1       0.693   4.291   5.164  0.00  0.00     0.026 A 
ATOM     20  C   LIG d   1       0.177   4.128   3.883  0.00  0.00     0.034 A 
ATOM     21 CL   LIG d   1      -1.459   3.642   3.672  0.00  0.00    -0.084 Cl
ATOM     22  C   LIG d   1       0.982   4.352   2.772  0.00  0.00     0.026 A 
ATOM     23  C   LIG d   1       2.313   4.746   2.946  0.00  0.00     0.031 A 
ENDBRANCH  10  17
ENDBRANCH   4   5
ENDBRANCH   3   4
ENDBRANCH   2   3
ENDBRANCH   1   2
BRANCH   1  24
ATOM     24  C   LIG d   1       8.522  14.149   2.552  0.00  0.00     0.022 C 
BRANCH  24  25
ATOM     25  C   LIG d   1       8.266  15.525   3.165  0.00  0.00     0.152 C 
BRANCH  25  26
ATOM     26  N   LIG d   1       8.756  16.575   2.276  0.00  0.00    -0.261 NA
ATOM     27  C   LIG d   1       9.881  17.149   2.512  0.00  0.00     0.197 C 
ATOM     28  N   LIG d   1      10.321  18.127   1.666  0.00  0.00    -0.190 NA
ATOM     29  N   LIG d   1      10.750  16.854   3.515  0.00  0.00    -0.271 NA
ATOM     30  C   LIG d   1       9.502  18.879   0.993  0.00  0.00     0.180 C 
ATOM     31  N   LIG d   1      10.039  19.802   0.142  0.00  0.00    -0.331 N 
ATOM     32  N   LIG d   1       8.144  18.797   0.986  0.00  0.00    -0.272 NA
ATOM     33  H   LIG d   1      11.052  19.748   0.120  0.00  0.00     0.168 HD
ATOM     34  H   LIG d   1       7.848  17.915   1.414  0.00  0.00     0.127 HD
ATOM     35  H   LIG d   1       7.758  18.887   0.053  0.00  0.00     0.127 HD
ATOM     36  H   LIG d   1      10.783  15.879   3.769  0.00  0.00     0.127 HD
ATOM     37  H   LIG d   1      11.666  17.236   3.313  0.00  0.00     0.127 HD
BRANCH  31  38
ATOM     38  C   LIG d   1       9.554  21.055  -0.281  0.00  0.00     0.034 A 
ATOM     39  C   LIG d   1      10.199  22.208   0.198  0.00  0.00     0.031 A 
ATOM     40  C   LIG d   1       9.808  23.486  -0.219  0.00  0.00     0.026 A 
ATOM     41  C   LIG d   1       8.767  23.623  -1.130  0.00  0.00     0.034 A 
ATOM     42 CL   LIG d   1       8.285  25.190  -1.649  0.00  0.00    -0.084 Cl
ATOM     43  C   LIG d   1       8.117  22.497  -1.624  0.00  0.00     0.026 A 
ATOM     44  C   LIG d   1       8.513  21.222  -1.204  0.00  0.00     0.031 A 
ENDBRANCH  31  38
ENDBRANCH  25  26
ENDBRANCH  24  25
ENDBRANCH   1  24
TORSDOF 9
ENDMDL
MODEL 8
REMARK VINA RESULT:      -7.3     22.073     25.067
REMARK  9 active torsions:
REMARK  status: ('A' for Active; 'I' for Inactive)
REMARK    1  A    between atoms: N_3  and  C_17 
REMARK    2  A    between atoms: N_4  and  C_18 
REMARK       I    between atoms: N_5  and  C_19 
REMARK       I    between atoms: N_6  and  C_20 
REMARK       I    between atoms: N_7  and  C_19 
REMARK       I    between atoms: N_8  and  C_20 
REMARK       I    between atoms: N_9  and  C_21 
REMARK    3  A    between atoms: N_9  and  C_23 
REMARK       I    between atoms: N_10  and  C_22 
REMARK    4  A    between atoms: N_10  and  C_24 
REMARK       I    between atoms: N_11  and  C_21 
REMARK       I    between atoms: N_12  and  C_22 
REMARK    5  A    between atoms: C_13  and  C_14 
REMARK    6  A    between atoms: C_13  and  C_15 
REMARK    7  A    between atoms: C_14  and  C_16 
REMARK    8  A    between atoms: C_15  and  C_17 
REMARK    9  A    between atoms: C_16  and  C_18 
ROOT
ATOM      1  C   LIG d   1       8.357  30.488 -14.365  0.00  0.00     0.002 C 
ENDROOT
BRANCH   1   2
ATOM      2  C   LIG d   1       8.634  29.395 -13.333  0.00  0.00     0.002 C 
BRANCH   2   3
ATOM      3  C   LIG d   1       8.250  29.852 -11.926  0.00  0.00     0.022 C 
BRANCH   3   4
ATOM      4  C   LIG d   1       7.433  28.784 -11.200  0.00  0.00     0.152 C 
BRANCH   4   5
ATOM      5  N   LIG d   1       6.208  28.509 -11.947  0.00  0.00    -0.261 NA
ATOM      6  C   LIG d   1       5.128  28.205 -11.322  0.00  0.00     0.197 C 
ATOM      7  N   LIG d   1       4.002  27.976 -12.053  0.00  0.00    -0.190 NA
ATOM      8  N   LIG d   1       4.946  28.128  -9.978  0.00  0.00    -0.271 NA
ATOM      9  C   LIG d   1       4.040  27.337 -13.176  0.00  0.00     0.180 C 
ATOM     10  N   LIG d   1       2.951  27.050 -13.959  0.00  0.00    -0.331 N 
ATOM     11  N   LIG d   1       5.154  26.808 -13.768  0.00  0.00    -0.272 NA
ATOM     12  H   LIG d   1       3.034  26.171 -14.450  0.00  0.00     0.168 HD
ATOM     13  H   LIG d   1       5.985  27.192 -13.307  0.00  0.00     0.127 HD
ATOM     14  H   LIG d   1       5.205  27.046 -14.752  0.00  0.00     0.127 HD
ATOM     15  H   LIG d   1       5.442  28.830  -9.451  0.00  0.00     0.127 HD
ATOM     16  H   LIG d   1       3.955  28.125  -9.767  0.00  0.00     0.127 HD
BRANCH  10  17
ATOM     17  C   LIG d   1       1.638  27.534 -13.828  0.00  0.00     0.034 A 
ATOM     18  C   LIG d   1       0.581  26.618 -13.704  0.00  0.00     0.031 A 
ATOM     19  C   LIG d   1      -0.745  27.053 -13.593  0.00  0.00     0.026 A 
ATOM     20  C   LIG d   1      -1.029  28.415 -13.617  0.00  0.00     0.034 A 
ATOM     21 CL   LIG d   1      -2.657  28.954 -13.486  0.00  0.00    -0.084 Cl
ATOM     22  C   LIG d   1      -0.001  29.340 -13.753  0.00  0.00     0.026 A 
ATOM     23  C   LIG d   1       1.322  28.899 -13.860  0.00  0.00     0.031 A 
ENDBRANCH  10  17
ENDBRANCH   4   5
ENDBRANCH   3   4
ENDBRANCH   2   3
ENDBRANCH   1   2
BRANCH   1  24
ATOM     24  C   LIG d   1       7.692  29.916 -15.617  0.00  0.00     0.022 C 
BRANCH  24  25
ATOM     25  C   LIG d   1       6.179  29.795 -15.436  0.00  0.00     0.152 C 
BRANCH  25  26
ATOM     26  N   LIG d   1       5.631  28.831 -16.385  0.00  0.00    -0.261 NA
ATOM     27  C   LIG d   1       5.332  29.197 -17.581  0.00  0.00     0.197 C 
ATOM     28  N   LIG d   1       4.822  28.277 -18.452  0.00  0.00    -0.190 NA
ATOM     29  N   LIG d   1       5.518  30.429 -18.123  0.00  0.00    -0.271 NA
ATOM     30  C   LIG d   1       4.130  27.254 -18.050  0.00  0.00     0.180 C 
ATOM     31  N   LIG d   1       3.697  26.368 -18.995  0.00  0.00    -0.331 N 
ATOM     32  N   LIG d   1       3.845  26.920 -16.762  0.00  0.00    -0.272 NA
ATOM     33  H   LIG d   1       4.022  26.619 -19.922  0.00  0.00     0.168 HD
ATOM     34  H   LIG d   1       4.437  27.462 -16.126  0.00  0.00     0.127 HD
ATOM     35  H   LIG d   1       3.953  25.928 -16.589  0.00  0.00     0.127 HD
ATOM     36  H   LIG d   1       6.336  30.916 -17.791  0.00  0.00     0.127 HD
ATOM     37  H   LIG d   1       5.477  30.381 -19.134  0.00  0.00     0.127 HD
BRANCH  31  38
ATOM     38  C   LIG d   1       2.558  25.540 -19.026  0.00  0.00     0.034 A 
ATOM     39  C   LIG d   1       2.743  24.156 -18.863  0.00  0.00     0.031 A 
ATOM     40  C   LIG d   1       1.655  23.276 -18.829  0.00  0.00     0.026 A 
ATOM     41  C   LIG d   1       0.363  23.775 -18.951  0.00  0.00     0.034 A 
ATOM     42 CL   LIG d   1      -0.978  22.699 -18.905  0.00  0.00    -0.084 Cl
ATOM     43  C   LIG d   1       0.153  25.141 -19.105  0.00  0.00     0.026 A 
ATOM     44  C   LIG d   1       1.245  26.016 -19.138  0.00  0.00     0.031 A 
ENDBRANCH  31  38
ENDBRANCH  25  26
ENDBRANCH  24  25
ENDBRANCH   1  24
TORSDOF 9
ENDMDL
MODEL 9
REMARK VINA RESULT:      -7.3     25.412     28.640
REMARK  9 active torsions:
REMARK  status: ('A' for Active; 'I' for Inactive)
REMARK    1  A    between atoms: N_3  and  C_17 
REMARK    2  A    between atoms: N_4  and  C_18 
REMARK       I    between atoms: N_5  and  C_19 
REMARK       I    between atoms: N_6  and  C_20 
REMARK       I    between atoms: N_7  and  C_19 
REMARK       I    between atoms: N_8  and  C_20 
REMARK       I    between atoms: N_9  and  C_21 
REMARK    3  A    between atoms: N_9  and  C_23 
REMARK       I    between atoms: N_10  and  C_22 
REMARK    4  A    between atoms: N_10  and  C_24 
REMARK       I    between atoms: N_11  and  C_21 
REMARK       I    between atoms: N_12  and  C_22 
REMARK    5  A    between atoms: C_13  and  C_14 
REMARK    6  A    between atoms: C_13  and  C_15 
REMARK    7  A    between atoms: C_14  and  C_16 
REMARK    8  A    between atoms: C_15  and  C_17 
REMARK    9  A    between atoms: C_16  and  C_18 
ROOT
ATOM      1  C   LIG d   1      11.516   0.259  23.999  0.00  0.00     0.002 C 
ENDROOT
BRANCH   1   2
ATOM      2  C   LIG d   1      11.178   0.412  22.516  0.00  0.00     0.002 C 
BRANCH   2   3
ATOM      3  C   LIG d   1      10.947  -0.948  21.857  0.00  0.00     0.022 C 
BRANCH   3   4
ATOM      4  C   LIG d   1      11.100  -2.085  22.864  0.00  0.00     0.152 C 
BRANCH   4   5
ATOM      5  N   LIG d   1       9.874  -2.876  22.905  0.00  0.00    -0.261 NA
ATOM      6  C   LIG d   1       9.553  -3.512  23.973  0.00  0.00     0.197 C 
ATOM      7  N   LIG d   1       8.391  -4.223  23.978  0.00  0.00    -0.190 NA
ATOM      8  N   LIG d   1      10.221  -3.530  25.156  0.00  0.00    -0.271 NA
ATOM      9  C   LIG d   1       8.003  -4.898  22.947  0.00  0.00     0.180 C 
ATOM     10  N   LIG d   1       6.860  -5.652  22.879  0.00  0.00    -0.331 N 
ATOM     11  N   LIG d   1       8.671  -5.012  21.758  0.00  0.00    -0.272 NA
ATOM     12  H   LIG d   1       6.957  -6.473  22.299  0.00  0.00     0.168 HD
ATOM     13  H   LIG d   1       9.405  -4.298  21.723  0.00  0.00     0.127 HD
ATOM     14  H   LIG d   1       8.055  -4.864  20.966  0.00  0.00     0.127 HD
ATOM     15  H   LIG d   1      10.634  -2.646  25.412  0.00  0.00     0.127 HD
ATOM     16  H   LIG d   1       9.619  -3.893  25.885  0.00  0.00     0.127 HD
BRANCH  10  17
ATOM     17  C   LIG d   1       5.798  -5.699  23.799  0.00  0.00     0.034 A 
ATOM     18  C   LIG d   1       5.732  -6.762  24.714  0.00  0.00     0.031 A 
ATOM     19  C   LIG d   1       4.682  -6.862  25.634  0.00  0.00     0.026 A 
ATOM     20  C   LIG d   1       3.676  -5.901  25.640  0.00  0.00     0.034 A 
ATOM     21 CL   LIG d   1       2.380  -6.023  26.765  0.00  0.00    -0.084 Cl
ATOM     22  C   LIG d   1       3.711  -4.847  24.735  0.00  0.00     0.026 A 
ATOM     23  C   LIG d   1       4.765  -4.751  23.820  0.00  0.00     0.031 A 
ENDBRANCH  10  17
ENDBRANCH   4   5
ENDBRANCH   3   4
ENDBRANCH   2   3
ENDBRANCH   1   2
BRANCH   1  24
ATOM     24  C   LIG d   1      10.739   1.261  24.853  0.00  0.00     0.022 C 
BRANCH  24  25
ATOM     25  C   LIG d   1       9.281   1.357  24.407  0.00  0.00     0.152 C 
BRANCH  25  26
ATOM     26  N   LIG d   1       8.549   0.157  24.802  0.00  0.00    -0.261 NA
ATOM     27  C   LIG d   1       7.264   0.164  24.834  0.00  0.00     0.197 C 
ATOM     28  N   LIG d   1       6.601  -0.971  25.205  0.00  0.00    -0.190 NA
ATOM     29  N   LIG d   1       6.447   1.190  24.479  0.00  0.00    -0.271 NA
ATOM     30  C   LIG d   1       7.121  -1.842  26.016  0.00  0.00     0.180 C 
ATOM     31  N   LIG d   1       6.396  -2.965  26.295  0.00  0.00    -0.331 N 
ATOM     32  N   LIG d   1       8.363  -1.795  26.571  0.00  0.00    -0.272 NA
ATOM     33  H   LIG d   1       5.524  -2.988  25.777  0.00  0.00     0.168 HD
ATOM     34  H   LIG d   1       8.929  -1.089  26.093  0.00  0.00     0.127 HD
ATOM     35  H   LIG d   1       8.827  -2.696  26.553  0.00  0.00     0.127 HD
ATOM     36  H   LIG d   1       6.791   1.758  23.720  0.00  0.00     0.127 HD
ATOM     37  H   LIG d   1       5.506   0.854  24.318  0.00  0.00     0.127 HD
BRANCH  31  38
ATOM     38  C   LIG d   1       6.363  -3.777  27.446  0.00  0.00     0.034 A 
ATOM     39  C   LIG d   1       7.188  -4.915  27.475  0.00  0.00     0.031 A 
ATOM     40  C   LIG d   1       7.250  -5.739  28.604  0.00  0.00     0.026 A 
ATOM     41  C   LIG d   1       6.489  -5.428  29.725  0.00  0.00     0.034 A 
ATOM     42 CL   LIG d   1       6.564  -6.434  31.118  0.00  0.00    -0.084 Cl
ATOM     43  C   LIG d   1       5.670  -4.303  29.724  0.00  0.00     0.026 A 
ATOM     44  C   LIG d   1       5.613  -3.482  28.592  0.00  0.00     0.031 A 
ENDBRANCH  31  38
ENDBRANCH  25  26
ENDBRANCH  24  25
ENDBRANCH   1  24
TORSDOF 9
ENDMDL
