MODEL 1
REMARK VINA RESULT:      -7.6      0.000      0.000
REMARK  8 active torsions:
REMARK  status: ('A' for Active; 'I' for Inactive)
REMARK    1  A    between atoms: S_1  and  N_7 
REMARK    2  A    between atoms: S_1  and  C_11 
REMARK    3  A    between atoms: O_4  and  C_22 
REMARK    4  A    between atoms: N_7  and  C_17 
REMARK    5  A    between atoms: N_8  and  N_10 
REMARK    6  A    between atoms: N_8  and  C_14 
REMARK    7  A    between atoms: N_10  and  C_18 
REMARK    8  A    between atoms: C_20  and  C_28 
ROOT
ATOM      1  C   LIG d   1      19.798   5.303  -5.311  0.00  0.00     0.075 A 
ATOM      2  C   LIG d   1      20.099   4.013  -5.744  0.00  0.00     0.027 A 
ATOM      3  C   LIG d   1      18.478   5.682  -5.072  0.00  0.00     0.027 A 
ATOM      4  C   LIG d   1      17.711   3.464  -5.772  0.00  0.00     0.079 A 
ATOM      5  C   LIG d   1      19.055   3.112  -5.975  0.00  0.00     0.035 A 
ATOM      6  C   LIG d   1      17.453   4.764  -5.313  0.00  0.00     0.035 A 
ENDROOT
BRANCH   4   7
ATOM      7  N   LIG d   1      16.651   2.655  -6.006  0.00  0.00    -0.150 NA
BRANCH   7   8
ATOM      8  N   LIG d   1      16.949   1.202  -6.031  0.00  0.00    -0.150 NA
BRANCH   8   9
ATOM      9  C   LIG d   1      15.867   0.376  -5.942  0.00  0.00     0.080 A 
ATOM     10  C   LIG d   1      15.644  -0.599  -6.953  0.00  0.00     0.054 A 
ATOM     11  C   LIG d   1      14.544  -1.497  -6.947  0.00  0.00     0.076 A 
ATOM     12  C   LIG d   1      13.638  -1.389  -5.878  0.00  0.00     0.082 A 
ATOM     13  C   LIG d   1      13.814  -0.444  -4.873  0.00  0.00     0.040 A 
ATOM     14  C   LIG d   1      14.914   0.422  -4.912  0.00  0.00     0.036 A 
BRANCH  11  15
ATOM     15  C   LIG d   1      14.335  -2.535  -8.034  0.00  0.00     0.212 C 
ATOM     16  O   LIG d   1      15.359  -3.268  -8.314  0.00  0.00    -0.644 OA
ATOM     17  O   LIG d   1      13.208  -2.663  -8.613  0.00  0.00    -0.644 OA
ENDBRANCH  11  15
BRANCH  12  18
ATOM     18  O   LIG d   1      12.537  -2.212  -5.773  0.00  0.00    -0.360 OA
ATOM     19  H   LIG d   1      12.282  -2.373  -6.722  0.00  0.00     0.217 HD
ENDBRANCH  12  18
ENDBRANCH   8   9
ENDBRANCH   7   8
ENDBRANCH   4   7
BRANCH   1  20
ATOM     20  S   LIG d   1      21.088   6.481  -5.061  0.00  0.00     0.247 S 
ATOM     21  O   LIG d   1      22.361   5.850  -5.367  0.00  0.00    -0.205 OA
ATOM     22  O   LIG d   1      20.749   7.742  -5.694  0.00  0.00    -0.205 OA
BRANCH  20  23
ATOM     23  N   LIG d   1      21.097   6.705  -3.372  0.00  0.00    -0.165 NA
ATOM     24  H   LIG d   1      20.244   6.279  -3.007  0.00  0.00     0.147 HD
BRANCH  23  25
ATOM     25  C   LIG d   1      21.072   8.051  -2.947  0.00  0.00     0.116 C 
ATOM     26  N   LIG d   1      22.312   8.555  -2.856  0.00  0.00    -0.248 NA
ATOM     27  C   LIG d   1      22.411   9.796  -2.334  0.00  0.00     0.118 C 
ATOM     28  C   LIG d   1      21.317  10.586  -2.015  0.00  0.00     0.019 C 
ATOM     29  C   LIG d   1      20.044  10.065  -2.223  0.00  0.00     0.005 C 
ATOM     30  C   LIG d   1      19.914   8.765  -2.697  0.00  0.00     0.045 C 
ENDBRANCH  23  25
ENDBRANCH  20  23
ENDBRANCH   1  20
TORSDOF 8
ENDMDL
MODEL 2
REMARK VINA RESULT:      -7.4      1.405      2.361
REMARK  8 active torsions:
REMARK  status: ('A' for Active; 'I' for Inactive)
REMARK    1  A    between atoms: S_1  and  N_7 
REMARK    2  A    between atoms: S_1  and  C_11 
REMARK    3  A    between atoms: O_4  and  C_22 
REMARK    4  A    between atoms: N_7  and  C_17 
REMARK    5  A    between atoms: N_8  and  N_10 
REMARK    6  A    between atoms: N_8  and  C_14 
REMARK    7  A    between atoms: N_10  and  C_18 
REMARK    8  A    between atoms: C_20  and  C_28 
ROOT
ATOM      1  C   LIG d   1      20.996   5.161  -4.627  0.00  0.00     0.075 A 
ATOM      2  C   LIG d   1      21.217   3.786  -4.654  0.00  0.00     0.027 A 
ATOM      3  C   LIG d   1      19.775   5.692  -5.043  0.00  0.00     0.027 A 
ATOM      4  C   LIG d   1      18.981   3.442  -5.593  0.00  0.00     0.079 A 
ATOM      5  C   LIG d   1      20.213   2.944  -5.141  0.00  0.00     0.035 A 
ATOM      6  C   LIG d   1      18.790   4.831  -5.528  0.00  0.00     0.035 A 
ENDROOT
BRANCH   4   7
ATOM      7  N   LIG d   1      17.979   2.691  -6.107  0.00  0.00    -0.150 NA
BRANCH   7   8
ATOM      8  N   LIG d   1      18.325   1.279  -6.401  0.00  0.00    -0.150 NA
BRANCH   8   9
ATOM      9  C   LIG d   1      17.276   0.468  -6.723  0.00  0.00     0.080 A 
ATOM     10  C   LIG d   1      16.016   0.667  -6.094  0.00  0.00     0.054 A 
ATOM     11  C   LIG d   1      14.872  -0.130  -6.361  0.00  0.00     0.076 A 
ATOM     12  C   LIG d   1      15.024  -1.171  -7.293  0.00  0.00     0.082 A 
ATOM     13  C   LIG d   1      16.240  -1.407  -7.923  0.00  0.00     0.040 A 
ATOM     14  C   LIG d   1      17.345  -0.596  -7.636  0.00  0.00     0.036 A 
BRANCH  11  15
ATOM     15  C   LIG d   1      13.536   0.112  -5.684  0.00  0.00     0.212 C 
ATOM     16  O   LIG d   1      12.728  -0.893  -5.661  0.00  0.00    -0.644 OA
ATOM     17  O   LIG d   1      13.255   1.243  -5.169  0.00  0.00    -0.644 OA
ENDBRANCH  11  15
BRANCH  12  18
ATOM     18  O   LIG d   1      13.977  -2.005  -7.627  0.00  0.00    -0.360 OA
ATOM     19  H   LIG d   1      13.333  -1.392  -8.075  0.00  0.00     0.217 HD
ENDBRANCH  12  18
ENDBRANCH   8   9
ENDBRANCH   7   8
ENDBRANCH   4   7
BRANCH   1  20
ATOM     20  S   LIG d   1      22.263   6.256  -4.068  0.00  0.00     0.247 S 
ATOM     21  O   LIG d   1      23.459   5.480  -3.789  0.00  0.00    -0.205 OA
ATOM     22  O   LIG d   1      22.352   7.411  -4.941  0.00  0.00    -0.205 OA
BRANCH  20  23
ATOM     23  N   LIG d   1      21.699   6.766  -2.543  0.00  0.00    -0.165 NA
ATOM     24  H   LIG d   1      20.811   6.291  -2.375  0.00  0.00     0.147 HD
BRANCH  23  25
ATOM     25  C   LIG d   1      21.425   8.148  -2.439  0.00  0.00     0.116 C 
ATOM     26  N   LIG d   1      20.175   8.428  -2.835  0.00  0.00    -0.248 NA
ATOM     27  C   LIG d   1      19.851   9.737  -2.898  0.00  0.00     0.118 C 
ATOM     28  C   LIG d   1      20.687  10.757  -2.470  0.00  0.00     0.019 C 
ATOM     29  C   LIG d   1      21.939  10.418  -1.967  0.00  0.00     0.005 C 
ATOM     30  C   LIG d   1      22.323   9.081  -1.952  0.00  0.00     0.045 C 
ENDBRANCH  23  25
ENDBRANCH  20  23
ENDBRANCH   1  20
TORSDOF 8
ENDMDL
MODEL 3
REMARK VINA RESULT:      -7.4     27.794     30.043
REMARK  8 active torsions:
REMARK  status: ('A' for Active; 'I' for Inactive)
REMARK    1  A    between atoms: S_1  and  N_7 
REMARK    2  A    between atoms: S_1  and  C_11 
REMARK    3  A    between atoms: O_4  and  C_22 
REMARK    4  A    between atoms: N_7  and  C_17 
REMARK    5  A    between atoms: N_8  and  N_10 
REMARK    6  A    between atoms: N_8  and  C_14 
REMARK    7  A    between atoms: N_10  and  C_18 
REMARK    8  A    between atoms: C_20  and  C_28 
ROOT
ATOM      1  C   LIG d   1       6.509   0.752  19.727  0.00  0.00     0.075 A 
ATOM      2  C   LIG d   1       6.309   0.594  21.097  0.00  0.00     0.027 A 
ATOM      3  C   LIG d   1       5.732   1.649  18.995  0.00  0.00     0.027 A 
ATOM      4  C   LIG d   1       4.470   2.211  21.017  0.00  0.00     0.079 A 
ATOM      5  C   LIG d   1       5.291   1.318  21.724  0.00  0.00     0.035 A 
ATOM      6  C   LIG d   1       4.720   2.358  19.644  0.00  0.00     0.035 A 
ENDROOT
BRANCH   4   7
ATOM      7  N   LIG d   1       3.447   2.918  21.551  0.00  0.00    -0.150 NA
BRANCH   7   8
ATOM      8  N   LIG d   1       3.698   4.368  21.732  0.00  0.00    -0.150 NA
BRANCH   8   9
ATOM      9  C   LIG d   1       4.609   4.696  22.693  0.00  0.00     0.080 A 
ATOM     10  C   LIG d   1       5.732   5.499  22.351  0.00  0.00     0.054 A 
ATOM     11  C   LIG d   1       6.733   5.885  23.281  0.00  0.00     0.076 A 
ATOM     12  C   LIG d   1       6.586   5.426  24.602  0.00  0.00     0.082 A 
ATOM     13  C   LIG d   1       5.509   4.631  24.976  0.00  0.00     0.040 A 
ATOM     14  C   LIG d   1       4.540   4.275  24.030  0.00  0.00     0.036 A 
BRANCH  11  15
ATOM     15  C   LIG d   1       7.915   6.752  22.892  0.00  0.00     0.212 C 
ATOM     16  O   LIG d   1       8.416   6.528  21.725  0.00  0.00    -0.644 OA
ATOM     17  O   LIG d   1       8.363   7.646  23.682  0.00  0.00    -0.644 OA
ENDBRANCH  11  15
BRANCH  12  18
ATOM     18  O   LIG d   1       7.500   5.742  25.586  0.00  0.00    -0.360 OA
ATOM     19  H   LIG d   1       8.372   5.507  25.170  0.00  0.00     0.217 HD
ENDBRANCH  12  18
ENDBRANCH   8   9
ENDBRANCH   7   8
ENDBRANCH   4   7
BRANCH   1  20
ATOM     20  S   LIG d   1       7.751  -0.187  18.895  0.00  0.00     0.247 S 
ATOM     21  O   LIG d   1       8.190   0.554  17.725  0.00  0.00    -0.205 OA
ATOM     22  O   LIG d   1       8.738  -0.669  19.843  0.00  0.00    -0.205 OA
BRANCH  20  23
ATOM     23  N   LIG d   1       6.890  -1.522  18.279  0.00  0.00    -0.165 NA
ATOM     24  H   LIG d   1       6.073  -1.656  18.877  0.00  0.00     0.147 HD
BRANCH  23  25
ATOM     25  C   LIG d   1       7.592  -2.747  18.299  0.00  0.00     0.116 C 
ATOM     26  N   LIG d   1       6.964  -3.655  19.061  0.00  0.00    -0.248 NA
ATOM     27  C   LIG d   1       7.617  -4.821  19.253  0.00  0.00     0.118 C 
ATOM     28  C   LIG d   1       8.806  -5.151  18.621  0.00  0.00     0.019 C 
ATOM     29  C   LIG d   1       9.373  -4.221  17.755  0.00  0.00     0.005 C 
ATOM     30  C   LIG d   1       8.755  -2.986  17.590  0.00  0.00     0.045 C 
ENDBRANCH  23  25
ENDBRANCH  20  23
ENDBRANCH   1  20
TORSDOF 8
ENDMDL
MODEL 4
REMARK VINA RESULT:      -7.4      8.142     15.230
REMARK  8 active torsions:
REMARK  status: ('A' for Active; 'I' for Inactive)
REMARK    1  A    between atoms: S_1  and  N_7 
REMARK    2  A    between atoms: S_1  and  C_11 
REMARK    3  A    between atoms: O_4  and  C_22 
REMARK    4  A    between atoms: N_7  and  C_17 
REMARK    5  A    between atoms: N_8  and  N_10 
REMARK    6  A    between atoms: N_8  and  C_14 
REMARK    7  A    between atoms: N_10  and  C_18 
REMARK    8  A    between atoms: C_20  and  C_28 
ROOT
ATOM      1  C   LIG d   1      12.394  -6.004 -11.924  0.00  0.00     0.075 A 
ATOM      2  C   LIG d   1      13.106  -4.820 -12.104  0.00  0.00     0.027 A 
ATOM      3  C   LIG d   1      11.694  -6.240 -10.742  0.00  0.00     0.027 A 
ATOM      4  C   LIG d   1      12.473  -4.096  -9.851  0.00  0.00     0.079 A 
ATOM      5  C   LIG d   1      13.143  -3.884 -11.067  0.00  0.00     0.035 A 
ATOM      6  C   LIG d   1      11.749  -5.290  -9.720  0.00  0.00     0.035 A 
ENDROOT
BRANCH   4   7
ATOM      7  N   LIG d   1      12.492  -3.250  -8.794  0.00  0.00    -0.150 NA
BRANCH   7   8
ATOM      8  N   LIG d   1      13.731  -2.450  -8.638  0.00  0.00    -0.150 NA
BRANCH   8   9
ATOM      9  C   LIG d   1      14.157  -2.262  -7.356  0.00  0.00     0.080 A 
ATOM     10  C   LIG d   1      14.097  -0.964  -6.780  0.00  0.00     0.054 A 
ATOM     11  C   LIG d   1      14.522  -0.672  -5.457  0.00  0.00     0.076 A 
ATOM     12  C   LIG d   1      15.034  -1.741  -4.702  0.00  0.00     0.082 A 
ATOM     13  C   LIG d   1      15.120  -3.024  -5.230  0.00  0.00     0.040 A 
ATOM     14  C   LIG d   1      14.686  -3.273  -6.538  0.00  0.00     0.036 A 
BRANCH  11  15
ATOM     15  C   LIG d   1      14.437   0.722  -4.863  0.00  0.00     0.212 C 
ATOM     16  O   LIG d   1      15.545   1.213  -4.424  0.00  0.00    -0.644 OA
ATOM     17  O   LIG d   1      13.330   1.351  -4.820  0.00  0.00    -0.644 OA
ENDBRANCH  11  15
BRANCH  12  18
ATOM     18  O   LIG d   1      15.474  -1.570  -3.406  0.00  0.00    -0.360 OA
ATOM     19  H   LIG d   1      16.199  -0.894  -3.499  0.00  0.00     0.217 HD
ENDBRANCH  12  18
ENDBRANCH   8   9
ENDBRANCH   7   8
ENDBRANCH   4   7
BRANCH   1  20
ATOM     20  S   LIG d   1      12.372  -7.230 -13.195  0.00  0.00     0.247 S 
ATOM     21  O   LIG d   1      11.469  -6.795 -14.247  0.00  0.00    -0.205 OA
ATOM     22  O   LIG d   1      13.726  -7.625 -13.537  0.00  0.00    -0.205 OA
BRANCH  20  23
ATOM     23  N   LIG d   1      11.589  -8.551 -12.455  0.00  0.00    -0.165 NA
ATOM     24  H   LIG d   1      12.265  -8.990 -11.828  0.00  0.00     0.147 HD
BRANCH  23  25
ATOM     25  C   LIG d   1      11.163  -9.565 -13.340  0.00  0.00     0.116 C 
ATOM     26  N   LIG d   1      12.155 -10.428 -13.605  0.00  0.00    -0.248 NA
ATOM     27  C   LIG d   1      11.892 -11.364 -14.541  0.00  0.00     0.118 C 
ATOM     28  C   LIG d   1      10.648 -11.538 -15.127  0.00  0.00     0.019 C 
ATOM     29  C   LIG d   1       9.614 -10.687 -14.747  0.00  0.00     0.005 C 
ATOM     30  C   LIG d   1       9.875  -9.673 -13.833  0.00  0.00     0.045 C 
ENDBRANCH  23  25
ENDBRANCH  20  23
ENDBRANCH   1  20
TORSDOF 8
ENDMDL
MODEL 5
REMARK VINA RESULT:      -7.3     10.018     15.408
REMARK  8 active torsions:
REMARK  status: ('A' for Active; 'I' for Inactive)
REMARK    1  A    between atoms: S_1  and  N_7 
REMARK    2  A    between atoms: S_1  and  C_11 
REMARK    3  A    between atoms: O_4  and  C_22 
REMARK    4  A    between atoms: N_7  and  C_17 
REMARK    5  A    between atoms: N_8  and  N_10 
REMARK    6  A    between atoms: N_8  and  C_14 
REMARK    7  A    between atoms: N_10  and  C_18 
REMARK    8  A    between atoms: C_20  and  C_28 
ROOT
ATOM      1  C   LIG d   1      12.474  -6.043 -11.978  0.00  0.00     0.075 A 
ATOM      2  C   LIG d   1      13.238  -4.885 -12.105  0.00  0.00     0.027 A 
ATOM      3  C   LIG d   1      11.669  -6.244 -10.858  0.00  0.00     0.027 A 
ATOM      4  C   LIG d   1      12.443  -4.120  -9.917  0.00  0.00     0.079 A 
ATOM      5  C   LIG d   1      13.220  -3.941 -11.073  0.00  0.00     0.035 A 
ATOM      6  C   LIG d   1      11.670  -5.288  -9.840  0.00  0.00     0.035 A 
ENDROOT
BRANCH   4   7
ATOM      7  N   LIG d   1      12.402  -3.266  -8.868  0.00  0.00    -0.150 NA
BRANCH   7   8
ATOM      8  N   LIG d   1      12.133  -3.887  -7.548  0.00  0.00    -0.150 NA
BRANCH   8   9
ATOM      9  C   LIG d   1      13.211  -4.007  -6.720  0.00  0.00     0.080 A 
ATOM     10  C   LIG d   1      13.673  -5.300  -6.352  0.00  0.00     0.054 A 
ATOM     11  C   LIG d   1      14.781  -5.522  -5.492  0.00  0.00     0.076 A 
ATOM     12  C   LIG d   1      15.431  -4.385  -4.985  0.00  0.00     0.082 A 
ATOM     13  C   LIG d   1      15.006  -3.102  -5.311  0.00  0.00     0.040 A 
ATOM     14  C   LIG d   1      13.911  -2.924  -6.166  0.00  0.00     0.036 A 
BRANCH  11  15
ATOM     15  C   LIG d   1      15.260  -6.914  -5.125  0.00  0.00     0.212 C 
ATOM     16  O   LIG d   1      14.345  -7.739  -4.740  0.00  0.00    -0.644 OA
ATOM     17  O   LIG d   1      16.492  -7.228  -5.206  0.00  0.00    -0.644 OA
ENDBRANCH  11  15
BRANCH  12  18
ATOM     18  O   LIG d   1      16.518  -4.485  -4.142  0.00  0.00    -0.360 OA
ATOM     19  H   LIG d   1      16.247  -3.941  -3.355  0.00  0.00     0.217 HD
ENDBRANCH  12  18
ENDBRANCH   8   9
ENDBRANCH   7   8
ENDBRANCH   4   7
BRANCH   1  20
ATOM     20  S   LIG d   1      12.517  -7.279 -13.238  0.00  0.00     0.247 S 
ATOM     21  O   LIG d   1      11.693  -6.839 -14.351  0.00  0.00    -0.205 OA
ATOM     22  O   LIG d   1      13.884  -7.697 -13.487  0.00  0.00    -0.205 OA
BRANCH  20  23
ATOM     23  N   LIG d   1      11.667  -8.581 -12.542  0.00  0.00    -0.165 NA
ATOM     24  H   LIG d   1      12.300  -9.037 -11.883  0.00  0.00     0.147 HD
BRANCH  23  25
ATOM     25  C   LIG d   1      11.262  -9.585 -13.450  0.00  0.00     0.116 C 
ATOM     26  N   LIG d   1       9.970  -9.447 -13.781  0.00  0.00    -0.248 NA
ATOM     27  C   LIG d   1       9.445 -10.430 -14.544  0.00  0.00     0.118 C 
ATOM     28  C   LIG d   1      10.191 -11.470 -15.078  0.00  0.00     0.019 C 
ATOM     29  C   LIG d   1      11.553 -11.519 -14.796  0.00  0.00     0.005 C 
ATOM     30  C   LIG d   1      12.105 -10.555 -13.959  0.00  0.00     0.045 C 
ENDBRANCH  23  25
ENDBRANCH  20  23
ENDBRANCH   1  20
TORSDOF 8
ENDMDL
MODEL 6
REMARK VINA RESULT:      -7.2      3.271     10.464
REMARK  8 active torsions:
REMARK  status: ('A' for Active; 'I' for Inactive)
REMARK    1  A    between atoms: S_1  and  N_7 
REMARK    2  A    between atoms: S_1  and  C_11 
REMARK    3  A    between atoms: O_4  and  C_22 
REMARK    4  A    between atoms: N_7  and  C_17 
REMARK    5  A    between atoms: N_8  and  N_10 
REMARK    6  A    between atoms: N_8  and  C_14 
REMARK    7  A    between atoms: N_10  and  C_18 
REMARK    8  A    between atoms: C_20  and  C_28 
ROOT
ATOM      1  C   LIG d   1      16.691  -0.171  -6.631  0.00  0.00     0.075 A 
ATOM      2  C   LIG d   1      15.732   0.697  -6.113  0.00  0.00     0.027 A 
ATOM      3  C   LIG d   1      18.012   0.244  -6.792  0.00  0.00     0.027 A 
ATOM      4  C   LIG d   1      17.416   2.471  -5.967  0.00  0.00     0.079 A 
ATOM      5  C   LIG d   1      16.102   2.007  -5.793  0.00  0.00     0.035 A 
ATOM      6  C   LIG d   1      18.356   1.558  -6.468  0.00  0.00     0.035 A 
ENDROOT
BRANCH   4   7
ATOM      7  N   LIG d   1      17.836   3.732  -5.710  0.00  0.00    -0.150 NA
BRANCH   7   8
ATOM      8  N   LIG d   1      18.889   4.252  -6.616  0.00  0.00    -0.150 NA
BRANCH   8   9
ATOM      9  C   LIG d   1      19.816   5.069  -6.038  0.00  0.00     0.080 A 
ATOM     10  C   LIG d   1      19.386   6.166  -5.242  0.00  0.00     0.054 A 
ATOM     11  C   LIG d   1      20.277   7.071  -4.608  0.00  0.00     0.076 A 
ATOM     12  C   LIG d   1      21.652   6.853  -4.801  0.00  0.00     0.082 A 
ATOM     13  C   LIG d   1      22.115   5.798  -5.579  0.00  0.00     0.040 A 
ATOM     14  C   LIG d   1      21.204   4.924  -6.186  0.00  0.00     0.036 A 
BRANCH  11  15
ATOM     15  C   LIG d   1      19.791   8.228  -3.755  0.00  0.00     0.212 C 
ATOM     16  O   LIG d   1      18.697   8.024  -3.102  0.00  0.00    -0.644 OA
ATOM     17  O   LIG d   1      20.444   9.320  -3.695  0.00  0.00    -0.644 OA
ENDBRANCH  11  15
BRANCH  12  18
ATOM     18  O   LIG d   1      22.604   7.671  -4.230  0.00  0.00    -0.360 OA
ATOM     19  H   LIG d   1      22.861   8.276  -4.977  0.00  0.00     0.217 HD
ENDBRANCH  12  18
ENDBRANCH   8   9
ENDBRANCH   7   8
ENDBRANCH   4   7
BRANCH   1  20
ATOM     20  S   LIG d   1      16.244  -1.815  -7.095  0.00  0.00     0.247 S 
ATOM     21  O   LIG d   1      15.484  -1.760  -8.332  0.00  0.00    -0.205 OA
ATOM     22  O   LIG d   1      17.396  -2.694  -7.006  0.00  0.00    -0.205 OA
BRANCH  20  23
ATOM     23  N   LIG d   1      15.118  -2.270  -5.900  0.00  0.00    -0.165 NA
ATOM     24  H   LIG d   1      14.789  -1.413  -5.453  0.00  0.00     0.147 HD
BRANCH  23  25
ATOM     25  C   LIG d   1      15.639  -3.074  -4.862  0.00  0.00     0.116 C 
ATOM     26  N   LIG d   1      16.097  -2.324  -3.849  0.00  0.00    -0.248 NA
ATOM     27  C   LIG d   1      16.734  -2.988  -2.861  0.00  0.00     0.118 C 
ATOM     28  C   LIG d   1      16.823  -4.370  -2.795  0.00  0.00     0.019 C 
ATOM     29  C   LIG d   1      16.243  -5.118  -3.815  0.00  0.00     0.005 C 
ATOM     30  C   LIG d   1      15.638  -4.457  -4.878  0.00  0.00     0.045 C 
ENDBRANCH  23  25
ENDBRANCH  20  23
ENDBRANCH   1  20
TORSDOF 8
ENDMDL
MODEL 7
REMARK VINA RESULT:      -7.1     16.437     20.941
REMARK  8 active torsions:
REMARK  status: ('A' for Active; 'I' for Inactive)
REMARK    1  A    between atoms: S_1  and  N_7 
REMARK    2  A    between atoms: S_1  and  C_11 
REMARK    3  A    between atoms: O_4  and  C_22 
REMARK    4  A    between atoms: N_7  and  C_17 
REMARK    5  A    between atoms: N_8  and  N_10 
REMARK    6  A    between atoms: N_8  and  C_14 
REMARK    7  A    between atoms: N_10  and  C_18 
REMARK    8  A    between atoms: C_20  and  C_28 
ROOT
ATOM      1  C   LIG d   1       9.781  16.649   2.590  0.00  0.00     0.075 A 
ATOM      2  C   LIG d   1      10.096  17.468   3.671  0.00  0.00     0.027 A 
ATOM      3  C   LIG d   1       9.669  17.180   1.306  0.00  0.00     0.027 A 
ATOM      4  C   LIG d   1      10.130  19.417   2.188  0.00  0.00     0.079 A 
ATOM      5  C   LIG d   1      10.261  18.840   3.461  0.00  0.00     0.035 A 
ATOM      6  C   LIG d   1       9.835  18.555   1.122  0.00  0.00     0.035 A 
ENDROOT
BRANCH   4   7
ATOM      7  N   LIG d   1      10.243  20.739   1.917  0.00  0.00    -0.150 NA
BRANCH   7   8
ATOM      8  N   LIG d   1      10.825  21.073   0.594  0.00  0.00    -0.150 NA
BRANCH   8   9
ATOM      9  C   LIG d   1      10.273  22.146  -0.041  0.00  0.00     0.080 A 
ATOM     10  C   LIG d   1       9.066  21.983  -0.776  0.00  0.00     0.054 A 
ATOM     11  C   LIG d   1       8.423  23.039  -1.473  0.00  0.00     0.076 A 
ATOM     12  C   LIG d   1       9.038  24.302  -1.425  0.00  0.00     0.082 A 
ATOM     13  C   LIG d   1      10.223  24.504  -0.726  0.00  0.00     0.040 A 
ATOM     14  C   LIG d   1      10.825  23.437  -0.047  0.00  0.00     0.036 A 
BRANCH  11  15
ATOM     15  C   LIG d   1       7.129  22.839  -2.241  0.00  0.00     0.212 C 
ATOM     16  O   LIG d   1       7.032  23.483  -3.354  0.00  0.00    -0.644 OA
ATOM     17  O   LIG d   1       6.214  22.071  -1.798  0.00  0.00    -0.644 OA
ENDBRANCH  11  15
BRANCH  12  18
ATOM     18  O   LIG d   1       8.498  25.398  -2.064  0.00  0.00    -0.360 OA
ATOM     19  H   LIG d   1       9.183  26.105  -1.921  0.00  0.00     0.217 HD
ENDBRANCH  12  18
ENDBRANCH   8   9
ENDBRANCH   7   8
ENDBRANCH   4   7
BRANCH   1  20
ATOM     20  S   LIG d   1       9.514  14.921   2.830  0.00  0.00     0.247 S 
ATOM     21  O   LIG d   1      10.804  14.255   2.897  0.00  0.00    -0.205 OA
ATOM     22  O   LIG d   1       8.545  14.703   3.889  0.00  0.00    -0.205 OA
BRANCH  20  23
ATOM     23  N   LIG d   1       8.829  14.418   1.353  0.00  0.00    -0.165 NA
ATOM     24  H   LIG d   1       8.696  15.253   0.782  0.00  0.00     0.147 HD
BRANCH  23  25
ATOM     25  C   LIG d   1       7.558  13.812   1.459  0.00  0.00     0.116 C 
ATOM     26  N   LIG d   1       6.576  14.709   1.286  0.00  0.00    -0.248 NA
ATOM     27  C   LIG d   1       5.320  14.261   1.495  0.00  0.00     0.118 C 
ATOM     28  C   LIG d   1       5.009  12.933   1.751  0.00  0.00     0.019 C 
ATOM     29  C   LIG d   1       6.050  12.013   1.819  0.00  0.00     0.005 C 
ATOM     30  C   LIG d   1       7.359  12.460   1.673  0.00  0.00     0.045 C 
ENDBRANCH  23  25
ENDBRANCH  20  23
ENDBRANCH   1  20
TORSDOF 8
ENDMDL
MODEL 8
REMARK VINA RESULT:      -7.0      3.869     11.306
REMARK  8 active torsions:
REMARK  status: ('A' for Active; 'I' for Inactive)
REMARK    1  A    between atoms: S_1  and  N_7 
REMARK    2  A    between atoms: S_1  and  C_11 
REMARK    3  A    between atoms: O_4  and  C_22 
REMARK    4  A    between atoms: N_7  and  C_17 
REMARK    5  A    between atoms: N_8  and  N_10 
REMARK    6  A    between atoms: N_8  and  C_14 
REMARK    7  A    between atoms: N_10  and  C_18 
REMARK    8  A    between atoms: C_20  and  C_28 
ROOT
ATOM      1  C   LIG d   1      15.398  -1.685  -8.093  0.00  0.00     0.075 A 
ATOM      2  C   LIG d   1      16.659  -1.745  -8.682  0.00  0.00     0.027 A 
ATOM      3  C   LIG d   1      15.181  -0.906  -6.958  0.00  0.00     0.027 A 
ATOM      4  C   LIG d   1      17.546  -0.271  -6.938  0.00  0.00     0.079 A 
ATOM      5  C   LIG d   1      17.718  -1.045  -8.097  0.00  0.00     0.035 A 
ATOM      6  C   LIG d   1      16.256  -0.218  -6.390  0.00  0.00     0.035 A 
ENDROOT
BRANCH   4   7
ATOM      7  N   LIG d   1      18.530   0.404  -6.300  0.00  0.00    -0.150 NA
BRANCH   7   8
ATOM      8  N   LIG d   1      19.006   1.634  -6.979  0.00  0.00    -0.150 NA
BRANCH   8   9
ATOM      9  C   LIG d   1      18.817   2.799  -6.295  0.00  0.00     0.080 A 
ATOM     10  C   LIG d   1      19.944   3.573  -5.903  0.00  0.00     0.054 A 
ATOM     11  C   LIG d   1      19.847   4.792  -5.183  0.00  0.00     0.076 A 
ATOM     12  C   LIG d   1      18.555   5.231  -4.845  0.00  0.00     0.082 A 
ATOM     13  C   LIG d   1      17.426   4.501  -5.201  0.00  0.00     0.040 A 
ATOM     14  C   LIG d   1      17.564   3.303  -5.914  0.00  0.00     0.036 A 
BRANCH  11  15
ATOM     15  C   LIG d   1      21.066   5.604  -4.787  0.00  0.00     0.212 C 
ATOM     16  O   LIG d   1      21.195   5.843  -3.526  0.00  0.00    -0.644 OA
ATOM     17  O   LIG d   1      21.901   6.005  -5.662  0.00  0.00    -0.644 OA
ENDBRANCH  11  15
BRANCH  12  18
ATOM     18  O   LIG d   1      18.345   6.403  -4.149  0.00  0.00    -0.360 OA
ATOM     19  H   LIG d   1      17.487   6.234  -3.673  0.00  0.00     0.217 HD
ENDBRANCH  12  18
ENDBRANCH   8   9
ENDBRANCH   7   8
ENDBRANCH   4   7
BRANCH   1  20
ATOM     20  S   LIG d   1      14.052  -2.600  -8.777  0.00  0.00     0.247 S 
ATOM     21  O   LIG d   1      14.568  -3.495  -9.799  0.00  0.00    -0.205 OA
ATOM     22  O   LIG d   1      13.217  -3.135  -7.718  0.00  0.00    -0.205 OA
BRANCH  20  23
ATOM     23  N   LIG d   1      13.164  -1.419  -9.627  0.00  0.00    -0.165 NA
ATOM     24  H   LIG d   1      12.332  -1.211  -9.073  0.00  0.00     0.147 HD
BRANCH  23  25
ATOM     25  C   LIG d   1      12.695  -1.823 -10.897  0.00  0.00     0.116 C 
ATOM     26  N   LIG d   1      11.694  -2.708 -10.786  0.00  0.00    -0.248 NA
ATOM     27  C   LIG d   1      11.258  -3.258 -11.940  0.00  0.00     0.118 C 
ATOM     28  C   LIG d   1      11.703  -2.868 -13.194  0.00  0.00     0.019 C 
ATOM     29  C   LIG d   1      12.669  -1.870 -13.271  0.00  0.00     0.005 C 
ATOM     30  C   LIG d   1      13.183  -1.334 -12.095  0.00  0.00     0.045 C 
ENDBRANCH  23  25
ENDBRANCH  20  23
ENDBRANCH   1  20
TORSDOF 8
ENDMDL
MODEL 9
REMARK VINA RESULT:      -7.0      7.233     14.140
REMARK  8 active torsions:
REMARK  status: ('A' for Active; 'I' for Inactive)
REMARK    1  A    between atoms: S_1  and  N_7 
REMARK    2  A    between atoms: S_1  and  C_11 
REMARK    3  A    between atoms: O_4  and  C_22 
REMARK    4  A    between atoms: N_7  and  C_17 
REMARK    5  A    between atoms: N_8  and  N_10 
REMARK    6  A    between atoms: N_8  and  C_14 
REMARK    7  A    between atoms: N_10  and  C_18 
REMARK    8  A    between atoms: C_20  and  C_28 
ROOT
ATOM      1  C   LIG d   1      21.797   9.437  -0.884  0.00  0.00     0.075 A 
ATOM      2  C   LIG d   1      23.088   9.481  -0.361  0.00  0.00     0.027 A 
ATOM      3  C   LIG d   1      20.692   9.678  -0.069  0.00  0.00     0.027 A 
ATOM      4  C   LIG d   1      22.172   9.953   1.862  0.00  0.00     0.079 A 
ATOM      5  C   LIG d   1      23.261   9.732   1.003  0.00  0.00     0.035 A 
ATOM      6  C   LIG d   1      20.891   9.923   1.291  0.00  0.00     0.035 A 
ENDROOT
BRANCH   4   7
ATOM      7  N   LIG d   1      22.264  10.169   3.195  0.00  0.00    -0.150 NA
BRANCH   7   8
ATOM      8  N   LIG d   1      23.233  11.213   3.608  0.00  0.00    -0.150 NA
BRANCH   8   9
ATOM      9  C   LIG d   1      22.998  11.791   4.821  0.00  0.00     0.080 A 
ATOM     10  C   LIG d   1      23.443  11.143   6.006  0.00  0.00     0.054 A 
ATOM     11  C   LIG d   1      23.238  11.666   7.310  0.00  0.00     0.076 A 
ATOM     12  C   LIG d   1      22.548  12.886   7.407  0.00  0.00     0.082 A 
ATOM     13  C   LIG d   1      22.087  13.548   6.274  0.00  0.00     0.040 A 
ATOM     14  C   LIG d   1      22.312  13.002   5.005  0.00  0.00     0.036 A 
BRANCH  11  15
ATOM     15  C   LIG d   1      23.733  10.958   8.558  0.00  0.00     0.212 C 
ATOM     16  O   LIG d   1      22.830  10.656   9.428  0.00  0.00    -0.644 OA
ATOM     17  O   LIG d   1      24.968  10.682   8.711  0.00  0.00    -0.644 OA
ENDBRANCH  11  15
BRANCH  12  18
ATOM     18  O   LIG d   1      22.295  13.484   8.624  0.00  0.00    -0.360 OA
ATOM     19  H   LIG d   1      23.113  13.278   9.152  0.00  0.00     0.217 HD
ENDBRANCH  12  18
ENDBRANCH   8   9
ENDBRANCH   7   8
ENDBRANCH   4   7
BRANCH   1  20
ATOM     20  S   LIG d   1      21.542   9.069  -2.592  0.00  0.00     0.247 S 
ATOM     21  O   LIG d   1      20.516   9.958  -3.111  0.00  0.00    -0.205 OA
ATOM     22  O   LIG d   1      22.814   8.972  -3.282  0.00  0.00    -0.205 OA
BRANCH  20  23
ATOM     23  N   LIG d   1      20.820   7.526  -2.560  0.00  0.00    -0.165 NA
ATOM     24  H   LIG d   1      21.575   6.840  -2.549  0.00  0.00     0.147 HD
BRANCH  23  25
ATOM     25  C   LIG d   1      20.026   7.214  -3.685  0.00  0.00     0.116 C 
ATOM     26  N   LIG d   1      18.725   7.166  -3.364  0.00  0.00    -0.248 NA
ATOM     27  C   LIG d   1      17.888   6.749  -4.339  0.00  0.00     0.118 C 
ATOM     28  C   LIG d   1      18.291   6.495  -5.641  0.00  0.00     0.019 C 
ATOM     29  C   LIG d   1      19.635   6.658  -5.961  0.00  0.00     0.005 C 
ATOM     30  C   LIG d   1      20.529   7.023  -4.960  0.00  0.00     0.045 C 
ENDBRANCH  23  25
ENDBRANCH  20  23
ENDBRANCH   1  20
TORSDOF 8
ENDMDL
