MODEL 1
REMARK VINA RESULT:      -9.1      0.000      0.000
REMARK  15 active torsions:
REMARK  status: ('A' for Active; 'I' for Inactive)
REMARK    1  A    between atoms: O_2  and  C_21 
REMARK    2  A    between atoms: O_2  and  C_25 
REMARK    3  A    between atoms: O_4  and  C_17 
REMARK    4  A    between atoms: O_5  and  C_24 
REMARK    5  A    between atoms: O_5  and  C_28 
REMARK    6  A    between atoms: O_6  and  C_18 
REMARK    7  A    between atoms: O_7  and  C_19 
REMARK    8  A    between atoms: O_8  and  C_20 
REMARK    9  A    between atoms: O_9  and  C_22 
REMARK   10  A    between atoms: O_10  and  C_23 
REMARK   11  A    between atoms: O_12  and  C_35 
REMARK   12  A    between atoms: O_14  and  C_42 
REMARK   13  A    between atoms: O_15  and  C_40 
REMARK   14  A    between atoms: C_16  and  C_25 
REMARK   15  A    between atoms: C_33  and  C_37 
ROOT
ATOM      1  O   UNK d   1       7.760  -3.135  25.849  0.00  0.00    -0.348 OA
ATOM      2  C   UNK d   1       6.729  -3.689  26.673  0.00  0.00     0.180 C 
ATOM      3  C   UNK d   1       7.371  -4.427  27.859  0.00  0.00     0.180 C 
ATOM      4  C   UNK d   1       8.356  -5.480  27.346  0.00  0.00     0.183 C 
ATOM      5  C   UNK d   1       9.373  -4.866  26.379  0.00  0.00     0.205 C 
ATOM      6  C   UNK d   1       8.617  -4.118  25.265  0.00  0.00     0.298 C 
ENDROOT
BRANCH   6   7
ATOM      7  O   UNK d   1       9.574  -3.459  24.424  0.00  0.00    -0.318 OA
BRANCH   7   8
ATOM      8  C   UNK d   1       9.195  -3.171  23.140  0.00  0.00     0.077 A 
ATOM      9  C   UNK d   1       9.653  -2.111  22.362  0.00  0.00     0.074 A 
ATOM     10  C   UNK d   1       9.112  -1.878  21.092  0.00  0.00     0.089 A 
ATOM     11  O   UNK d   1       9.573  -0.746  20.479  0.00  0.00    -0.340 OA
ATOM     12  C   UNK d   1       8.159  -2.745  20.554  0.00  0.00     0.076 A 
ATOM     13  C   UNK d   1       8.771  -0.228  19.412  0.00  0.00     0.169 C 
ATOM     14  C   UNK d   1       8.277  -1.306  18.462  0.00  0.00     0.121 C 
ATOM     15  C   UNK d   1       7.632  -2.445  19.199  0.00  0.00     0.167 C 
ATOM     16  O   UNK d   1       6.756  -3.112  18.659  0.00  0.00    -0.292 OA
ATOM     17  C   UNK d   1       7.729  -3.833  21.323  0.00  0.00     0.085 A 
ATOM     18  C   UNK d   1       8.237  -4.037  22.609  0.00  0.00     0.074 A 
BRANCH  13  19
ATOM     19  C   UNK d   1       7.714   0.759  19.904  0.00  0.00    -0.026 A 
ATOM     20  C   UNK d   1       6.586   1.114  19.150  0.00  0.00     0.049 A 
ATOM     21  C   UNK d   1       5.643   2.015  19.656  0.00  0.00     0.099 A 
ATOM     22  C   UNK d   1       5.796   2.596  20.920  0.00  0.00     0.101 A 
ATOM     23  C   UNK d   1       6.917   2.253  21.675  0.00  0.00     0.040 A 
ATOM     24  C   UNK d   1       7.862   1.347  21.172  0.00  0.00     0.012 A 
BRANCH  21  25
ATOM     25  O   UNK d   1       4.544   2.338  18.903  0.00  0.00    -0.358 OA
ATOM     26  H   UNK d   1       3.746   2.023  19.352  0.00  0.00     0.217 HD
ENDBRANCH  21  25
BRANCH  22  27
ATOM     27  O   UNK d   1       4.811   3.462  21.314  0.00  0.00    -0.353 OA
ATOM     28  C   UNK d   1       5.145   4.434  22.293  0.00  0.00     0.210 C 
ENDBRANCH  22  27
ENDBRANCH  13  19
BRANCH  17  29
ATOM     29  O   UNK d   1       6.795  -4.707  20.844  0.00  0.00    -0.360 OA
ATOM     30  H   UNK d   1       6.096  -4.852  21.502  0.00  0.00     0.217 HD
ENDBRANCH  17  29
ENDBRANCH   7   8
ENDBRANCH   6   7
BRANCH   5  31
ATOM     31  O   UNK d   1      10.190  -5.922  25.852  0.00  0.00    -0.388 OA
ATOM     32  H   UNK d   1      10.302  -6.555  26.588  0.00  0.00     0.210 HD
ENDBRANCH   5  31
BRANCH   2  33
ATOM     33  C   UNK d   1       5.823  -2.548  27.175  0.00  0.00     0.205 C 
BRANCH  33  34
ATOM     34  O   UNK d   1       6.523  -1.621  28.015  0.00  0.00    -0.356 OA
BRANCH  34  35
ATOM     35  C   UNK d   1       6.522  -0.276  27.521  0.00  0.00     0.291 C 
ATOM     36  O   UNK d   1       5.774  -0.226  26.296  0.00  0.00    -0.351 OA
ATOM     37  C   UNK d   1       6.129   0.811  25.379  0.00  0.00     0.152 C 
ATOM     38  C   UNK d   1       6.706   2.037  26.095  0.00  0.00     0.178 C 
ATOM     39  C   UNK d   1       4.875   1.138  24.574  0.00  0.00     0.042 C 
ATOM     40  C   UNK d   1       8.011   1.638  26.801  0.00  0.00     0.183 C 
ATOM     41  C   UNK d   1       7.981   0.195  27.334  0.00  0.00     0.204 C 
BRANCH  38  42
ATOM     42  O   UNK d   1       6.988   3.127  25.217  0.00  0.00    -0.390 OA
ATOM     43  H   UNK d   1       7.392   2.762  24.410  0.00  0.00     0.210 HD
ENDBRANCH  38  42
BRANCH  40  44
ATOM     44  O   UNK d   1       8.247   2.558  27.890  0.00  0.00    -0.390 OA
ATOM     45  H   UNK d   1       9.191   2.803  27.821  0.00  0.00     0.210 HD
ENDBRANCH  40  44
BRANCH  41  46
ATOM     46  O   UNK d   1       8.757   0.112  28.538  0.00  0.00    -0.388 OA
ATOM     47  H   UNK d   1       8.404   0.816  29.122  0.00  0.00     0.210 HD
ENDBRANCH  41  46
ENDBRANCH  34  35
ENDBRANCH  33  34
ENDBRANCH   2  33
BRANCH   4  48
ATOM     48  O   UNK d   1       9.058  -6.081  28.447  0.00  0.00    -0.390 OA
ATOM     49  H   UNK d   1       9.447  -5.346  28.956  0.00  0.00     0.210 HD
ENDBRANCH   4  48
BRANCH   3  50
ATOM     50  O   UNK d   1       6.382  -5.070  28.666  0.00  0.00    -0.390 OA
ATOM     51  H   UNK d   1       5.518  -4.706  28.402  0.00  0.00     0.210 HD
ENDBRANCH   3  50
TORSDOF 15
ENDMDL
MODEL 2
REMARK VINA RESULT:      -9.1      2.414      3.373
REMARK  15 active torsions:
REMARK  status: ('A' for Active; 'I' for Inactive)
REMARK    1  A    between atoms: O_2  and  C_21 
REMARK    2  A    between atoms: O_2  and  C_25 
REMARK    3  A    between atoms: O_4  and  C_17 
REMARK    4  A    between atoms: O_5  and  C_24 
REMARK    5  A    between atoms: O_5  and  C_28 
REMARK    6  A    between atoms: O_6  and  C_18 
REMARK    7  A    between atoms: O_7  and  C_19 
REMARK    8  A    between atoms: O_8  and  C_20 
REMARK    9  A    between atoms: O_9  and  C_22 
REMARK   10  A    between atoms: O_10  and  C_23 
REMARK   11  A    between atoms: O_12  and  C_35 
REMARK   12  A    between atoms: O_14  and  C_42 
REMARK   13  A    between atoms: O_15  and  C_40 
REMARK   14  A    between atoms: C_16  and  C_25 
REMARK   15  A    between atoms: C_33  and  C_37 
ROOT
ATOM      1  O   UNK d   1       8.973  -3.058  24.665  0.00  0.00    -0.348 OA
ATOM      2  C   UNK d   1       8.953  -2.192  25.806  0.00  0.00     0.180 C 
ATOM      3  C   UNK d   1       9.388  -2.985  27.050  0.00  0.00     0.180 C 
ATOM      4  C   UNK d   1       8.497  -4.218  27.219  0.00  0.00     0.183 C 
ATOM      5  C   UNK d   1       8.458  -5.056  25.938  0.00  0.00     0.205 C 
ATOM      6  C   UNK d   1       8.057  -4.151  24.758  0.00  0.00     0.298 C 
ENDROOT
BRANCH   6   7
ATOM      7  O   UNK d   1       8.123  -4.916  23.547  0.00  0.00    -0.318 OA
BRANCH   7   8
ATOM      8  C   UNK d   1       8.169  -4.228  22.366  0.00  0.00     0.077 A 
ATOM      9  C   UNK d   1       8.702  -2.956  22.171  0.00  0.00     0.074 A 
ATOM     10  C   UNK d   1       8.600  -2.328  20.924  0.00  0.00     0.089 A 
ATOM     11  O   UNK d   1       9.068  -1.043  20.897  0.00  0.00    -0.340 OA
ATOM     12  C   UNK d   1       8.030  -2.992  19.836  0.00  0.00     0.076 A 
ATOM     13  C   UNK d   1       8.613  -0.222  19.816  0.00  0.00     0.169 C 
ATOM     14  C   UNK d   1       8.641  -0.935  18.475  0.00  0.00     0.121 C 
ATOM     15  C   UNK d   1       7.961  -2.271  18.540  0.00  0.00     0.167 C 
ATOM     16  O   UNK d   1       7.433  -2.745  17.539  0.00  0.00    -0.292 OA
ATOM     17  C   UNK d   1       7.530  -4.286  20.025  0.00  0.00     0.085 A 
ATOM     18  C   UNK d   1       7.591  -4.893  21.283  0.00  0.00     0.074 A 
BRANCH  13  19
ATOM     19  C   UNK d   1       7.316   0.514  20.151  0.00  0.00    -0.026 A 
ATOM     20  C   UNK d   1       6.560   1.208  19.195  0.00  0.00     0.049 A 
ATOM     21  C   UNK d   1       5.373   1.855  19.556  0.00  0.00     0.099 A 
ATOM     22  C   UNK d   1       4.906   1.839  20.875  0.00  0.00     0.101 A 
ATOM     23  C   UNK d   1       5.655   1.156  21.833  0.00  0.00     0.040 A 
ATOM     24  C   UNK d   1       6.843   0.503  21.474  0.00  0.00     0.012 A 
BRANCH  21  25
ATOM     25  O   UNK d   1       4.647   2.518  18.600  0.00  0.00    -0.358 OA
ATOM     26  H   UNK d   1       4.379   3.382  18.946  0.00  0.00     0.217 HD
ENDBRANCH  21  25
BRANCH  22  27
ATOM     27  O   UNK d   1       3.733   2.503  21.112  0.00  0.00    -0.353 OA
ATOM     28  C   UNK d   1       3.718   3.450  22.170  0.00  0.00     0.210 C 
ENDBRANCH  22  27
ENDBRANCH  13  19
BRANCH  17  29
ATOM     29  O   UNK d   1       6.959  -4.976  18.994  0.00  0.00    -0.360 OA
ATOM     30  H   UNK d   1       5.991  -4.940  19.056  0.00  0.00     0.217 HD
ENDBRANCH  17  29
ENDBRANCH   7   8
ENDBRANCH   6   7
BRANCH   5  31
ATOM     31  O   UNK d   1       7.523  -6.129  26.128  0.00  0.00    -0.388 OA
ATOM     32  H   UNK d   1       7.248  -6.395  25.229  0.00  0.00     0.210 HD
ENDBRANCH   5  31
BRANCH   2  33
ATOM     33  C   UNK d   1       9.913  -1.013  25.556  0.00  0.00     0.205 C 
BRANCH  33  34
ATOM     34  O   UNK d   1       9.628  -0.324  24.332  0.00  0.00    -0.356 OA
BRANCH  34  35
ATOM     35  C   UNK d   1      10.522   0.761  24.057  0.00  0.00     0.291 C 
ATOM     36  O   UNK d   1       9.759   1.964  23.876  0.00  0.00    -0.351 OA
ATOM     37  C   UNK d   1      10.349   2.971  23.050  0.00  0.00     0.152 C 
ATOM     38  C   UNK d   1      11.880   2.909  23.077  0.00  0.00     0.178 C 
ATOM     39  C   UNK d   1       9.808   4.313  23.533  0.00  0.00     0.042 C 
ATOM     40  C   UNK d   1      12.339   1.565  22.490  0.00  0.00     0.183 C 
ATOM     41  C   UNK d   1      11.368   0.415  22.812  0.00  0.00     0.204 C 
BRANCH  38  42
ATOM     42  O   UNK d   1      12.504   3.957  22.333  0.00  0.00    -0.390 OA
ATOM     43  H   UNK d   1      13.467   3.834  22.397  0.00  0.00     0.210 HD
ENDBRANCH  38  42
BRANCH  40  44
ATOM     44  O   UNK d   1      13.652   1.259  23.008  0.00  0.00    -0.390 OA
ATOM     45  H   UNK d   1      14.279   1.674  22.382  0.00  0.00     0.210 HD
ENDBRANCH  40  44
BRANCH  41  46
ATOM     46  O   UNK d   1      12.106  -0.808  22.957  0.00  0.00    -0.388 OA
ATOM     47  H   UNK d   1      13.050  -0.544  22.937  0.00  0.00     0.210 HD
ENDBRANCH  41  46
ENDBRANCH  34  35
ENDBRANCH  33  34
ENDBRANCH   2  33
BRANCH   4  48
ATOM     48  O   UNK d   1       8.981  -5.035  28.300  0.00  0.00    -0.390 OA
ATOM     49  H   UNK d   1       8.284  -5.693  28.477  0.00  0.00     0.210 HD
ENDBRANCH   4  48
BRANCH   3  50
ATOM     50  O   UNK d   1       9.303  -2.184  28.230  0.00  0.00    -0.390 OA
ATOM     51  H   UNK d   1       9.070  -2.782  28.964  0.00  0.00     0.210 HD
ENDBRANCH   3  50
TORSDOF 15
ENDMDL
MODEL 3
REMARK VINA RESULT:      -9.1      3.221      5.024
REMARK  15 active torsions:
REMARK  status: ('A' for Active; 'I' for Inactive)
REMARK    1  A    between atoms: O_2  and  C_21 
REMARK    2  A    between atoms: O_2  and  C_25 
REMARK    3  A    between atoms: O_4  and  C_17 
REMARK    4  A    between atoms: O_5  and  C_24 
REMARK    5  A    between atoms: O_5  and  C_28 
REMARK    6  A    between atoms: O_6  and  C_18 
REMARK    7  A    between atoms: O_7  and  C_19 
REMARK    8  A    between atoms: O_8  and  C_20 
REMARK    9  A    between atoms: O_9  and  C_22 
REMARK   10  A    between atoms: O_10  and  C_23 
REMARK   11  A    between atoms: O_12  and  C_35 
REMARK   12  A    between atoms: O_14  and  C_42 
REMARK   13  A    between atoms: O_15  and  C_40 
REMARK   14  A    between atoms: C_16  and  C_25 
REMARK   15  A    between atoms: C_33  and  C_37 
ROOT
ATOM      1  O   UNK d   1       7.148  -4.361  24.985  0.00  0.00    -0.348 OA
ATOM      2  C   UNK d   1       6.348  -5.425  25.510  0.00  0.00     0.180 C 
ATOM      3  C   UNK d   1       6.833  -5.771  26.928  0.00  0.00     0.180 C 
ATOM      4  C   UNK d   1       8.327  -6.103  26.901  0.00  0.00     0.183 C 
ATOM      5  C   UNK d   1       9.133  -4.987  26.229  0.00  0.00     0.205 C 
ATOM      6  C   UNK d   1       8.529  -4.698  24.842  0.00  0.00     0.298 C 
ENDROOT
BRANCH   6   7
ATOM      7  O   UNK d   1       9.222  -3.584  24.262  0.00  0.00    -0.318 OA
BRANCH   7   8
ATOM      8  C   UNK d   1       8.888  -3.227  22.984  0.00  0.00     0.077 A 
ATOM      9  C   UNK d   1       9.216  -2.033  22.348  0.00  0.00     0.074 A 
ATOM     10  C   UNK d   1       8.731  -1.757  21.064  0.00  0.00     0.089 A 
ATOM     11  O   UNK d   1       9.039  -0.509  20.598  0.00  0.00    -0.340 OA
ATOM     12  C   UNK d   1       7.972  -2.702  20.371  0.00  0.00     0.076 A 
ATOM     13  C   UNK d   1       8.236  -0.015  19.520  0.00  0.00     0.169 C 
ATOM     14  C   UNK d   1       7.991  -1.052  18.438  0.00  0.00     0.121 C 
ATOM     15  C   UNK d   1       7.494  -2.348  19.010  0.00  0.00     0.167 C 
ATOM     16  O   UNK d   1       6.778  -3.085  18.341  0.00  0.00    -0.292 OA
ATOM     17  C   UNK d   1       7.675  -3.918  20.998  0.00  0.00     0.085 A 
ATOM     18  C   UNK d   1       8.123  -4.172  22.298  0.00  0.00     0.074 A 
BRANCH  13  19
ATOM     19  C   UNK d   1       7.001   0.737  20.012  0.00  0.00    -0.026 A 
ATOM     20  C   UNK d   1       6.194   1.518  19.172  0.00  0.00     0.049 A 
ATOM     21  C   UNK d   1       5.066   2.177  19.674  0.00  0.00     0.099 A 
ATOM     22  C   UNK d   1       4.712   2.087  21.025  0.00  0.00     0.101 A 
ATOM     23  C   UNK d   1       5.512   1.318  21.869  0.00  0.00     0.040 A 
ATOM     24  C   UNK d   1       6.641   0.653  21.368  0.00  0.00     0.012 A 
BRANCH  21  25
ATOM     25  O   UNK d   1       4.288   2.925  18.829  0.00  0.00    -0.358 OA
ATOM     26  H   UNK d   1       3.358   2.684  18.954  0.00  0.00     0.217 HD
ENDBRANCH  21  25
BRANCH  22  27
ATOM     27  O   UNK d   1       3.588   2.771  21.405  0.00  0.00    -0.353 OA
ATOM     28  C   UNK d   1       2.547   2.030  22.022  0.00  0.00     0.210 C 
ENDBRANCH  22  27
ENDBRANCH  13  19
BRANCH  17  29
ATOM     29  O   UNK d   1       6.932  -4.873  20.365  0.00  0.00    -0.360 OA
ATOM     30  H   UNK d   1       7.147  -4.899  19.419  0.00  0.00     0.217 HD
ENDBRANCH  17  29
ENDBRANCH   7   8
ENDBRANCH   6   7
BRANCH   5  31
ATOM     31  O   UNK d   1      10.501  -5.411  26.137  0.00  0.00    -0.388 OA
ATOM     32  H   UNK d   1      10.701  -5.831  26.996  0.00  0.00     0.210 HD
ENDBRANCH   5  31
BRANCH   2  33
ATOM     33  C   UNK d   1       4.874  -4.976  25.540  0.00  0.00     0.205 C 
BRANCH  33  34
ATOM     34  O   UNK d   1       3.964  -6.067  25.356  0.00  0.00    -0.356 OA
BRANCH  34  35
ATOM     35  C   UNK d   1       3.249  -6.022  24.115  0.00  0.00     0.291 C 
ATOM     36  O   UNK d   1       2.242  -5.002  24.191  0.00  0.00    -0.351 OA
ATOM     37  C   UNK d   1       1.095  -5.180  23.357  0.00  0.00     0.152 C 
ATOM     38  C   UNK d   1       1.424  -5.984  22.094  0.00  0.00     0.178 C 
ATOM     39  C   UNK d   1       0.555  -3.788  23.042  0.00  0.00     0.042 C 
ATOM     40  C   UNK d   1       1.870  -7.397  22.500  0.00  0.00     0.183 C 
ATOM     41  C   UNK d   1       2.647  -7.415  23.828  0.00  0.00     0.204 C 
BRANCH  38  42
ATOM     42  O   UNK d   1       0.322  -6.105  21.194  0.00  0.00    -0.390 OA
ATOM     43  H   UNK d   1       0.622  -6.615  20.421  0.00  0.00     0.210 HD
ENDBRANCH  38  42
BRANCH  40  44
ATOM     44  O   UNK d   1       2.689  -7.944  21.443  0.00  0.00    -0.390 OA
ATOM     45  H   UNK d   1       3.559  -8.119  21.856  0.00  0.00     0.210 HD
ENDBRANCH  40  44
BRANCH  41  46
ATOM     46  O   UNK d   1       3.635  -8.457  23.790  0.00  0.00    -0.388 OA
ATOM     47  H   UNK d   1       4.265  -8.189  23.089  0.00  0.00     0.210 HD
ENDBRANCH  41  46
ENDBRANCH  34  35
ENDBRANCH  33  34
ENDBRANCH   2  33
BRANCH   4  48
ATOM     48  O   UNK d   1       8.817  -6.296  28.239  0.00  0.00    -0.390 OA
ATOM     49  H   UNK d   1       8.592  -7.213  28.482  0.00  0.00     0.210 HD
ENDBRANCH   4  48
BRANCH   3  50
ATOM     50  O   UNK d   1       6.118  -6.887  27.463  0.00  0.00    -0.390 OA
ATOM     51  H   UNK d   1       6.272  -6.889  28.425  0.00  0.00     0.210 HD
ENDBRANCH   3  50
TORSDOF 15
ENDMDL
MODEL 4
REMARK VINA RESULT:      -8.9      2.445      7.403
REMARK  15 active torsions:
REMARK  status: ('A' for Active; 'I' for Inactive)
REMARK    1  A    between atoms: O_2  and  C_21 
REMARK    2  A    between atoms: O_2  and  C_25 
REMARK    3  A    between atoms: O_4  and  C_17 
REMARK    4  A    between atoms: O_5  and  C_24 
REMARK    5  A    between atoms: O_5  and  C_28 
REMARK    6  A    between atoms: O_6  and  C_18 
REMARK    7  A    between atoms: O_7  and  C_19 
REMARK    8  A    between atoms: O_8  and  C_20 
REMARK    9  A    between atoms: O_9  and  C_22 
REMARK   10  A    between atoms: O_10  and  C_23 
REMARK   11  A    between atoms: O_12  and  C_35 
REMARK   12  A    between atoms: O_14  and  C_42 
REMARK   13  A    between atoms: O_15  and  C_40 
REMARK   14  A    between atoms: C_16  and  C_25 
REMARK   15  A    between atoms: C_33  and  C_37 
ROOT
ATOM      1  O   UNK d   1       7.169  -3.420  20.220  0.00  0.00    -0.348 OA
ATOM      2  C   UNK d   1       7.335  -4.686  19.572  0.00  0.00     0.180 C 
ATOM      3  C   UNK d   1       8.640  -4.672  18.759  0.00  0.00     0.180 C 
ATOM      4  C   UNK d   1       8.631  -3.495  17.780  0.00  0.00     0.183 C 
ATOM      5  C   UNK d   1       8.339  -2.175  18.500  0.00  0.00     0.205 C 
ATOM      6  C   UNK d   1       7.039  -2.324  19.313  0.00  0.00     0.298 C 
ENDROOT
BRANCH   6   7
ATOM      7  O   UNK d   1       6.827  -1.122  20.066  0.00  0.00    -0.318 OA
BRANCH   7   8
ATOM      8  C   UNK d   1       7.832  -0.714  20.901  0.00  0.00     0.077 A 
ATOM      9  C   UNK d   1       8.469  -1.490  21.866  0.00  0.00     0.074 A 
ATOM     10  C   UNK d   1       9.421  -0.919  22.719  0.00  0.00     0.089 A 
ATOM     11  O   UNK d   1       9.892  -1.762  23.688  0.00  0.00    -0.340 OA
ATOM     12  C   UNK d   1       9.801   0.416  22.570  0.00  0.00     0.076 A 
ATOM     13  C   UNK d   1      10.513  -1.146  24.822  0.00  0.00     0.169 C 
ATOM     14  C   UNK d   1      11.464  -0.024  24.442  0.00  0.00     0.121 C 
ATOM     15  C   UNK d   1      10.822   0.956  23.504  0.00  0.00     0.167 C 
ATOM     16  O   UNK d   1      11.186   2.128  23.491  0.00  0.00    -0.292 OA
ATOM     17  C   UNK d   1       9.187   1.184  21.574  0.00  0.00     0.085 A 
ATOM     18  C   UNK d   1       8.203   0.623  20.754  0.00  0.00     0.074 A 
BRANCH  13  19
ATOM     19  C   UNK d   1       9.511  -0.823  25.929  0.00  0.00    -0.026 A 
ATOM     20  C   UNK d   1       9.896  -0.457  27.227  0.00  0.00     0.049 A 
ATOM     21  C   UNK d   1       8.935  -0.160  28.200  0.00  0.00     0.099 A 
ATOM     22  C   UNK d   1       7.567  -0.226  27.916  0.00  0.00     0.101 A 
ATOM     23  C   UNK d   1       7.175  -0.594  26.630  0.00  0.00     0.040 A 
ATOM     24  C   UNK d   1       8.135  -0.889  25.651  0.00  0.00     0.012 A 
BRANCH  21  25
ATOM     25  O   UNK d   1       9.338   0.205  29.459  0.00  0.00    -0.358 OA
ATOM     26  H   UNK d   1       9.704  -0.568  29.913  0.00  0.00     0.217 HD
ENDBRANCH  21  25
BRANCH  22  27
ATOM     27  O   UNK d   1       6.717   0.088  28.943  0.00  0.00    -0.353 OA
ATOM     28  C   UNK d   1       5.335  -0.178  28.756  0.00  0.00     0.210 C 
ENDBRANCH  22  27
ENDBRANCH  13  19
BRANCH  17  29
ATOM     29  O   UNK d   1       9.520   2.495  21.391  0.00  0.00    -0.360 OA
ATOM     30  H   UNK d   1      10.073   2.598  20.600  0.00  0.00     0.217 HD
ENDBRANCH  17  29
ENDBRANCH   7   8
ENDBRANCH   6   7
BRANCH   5  31
ATOM     31  O   UNK d   1       8.234  -1.136  17.514  0.00  0.00    -0.388 OA
ATOM     32  H   UNK d   1       7.340  -0.759  17.630  0.00  0.00     0.210 HD
ENDBRANCH   5  31
BRANCH   2  33
ATOM     33  C   UNK d   1       7.379  -5.794  20.642  0.00  0.00     0.205 C 
BRANCH  33  34
ATOM     34  O   UNK d   1       8.266  -5.479  21.722  0.00  0.00    -0.356 OA
BRANCH  34  35
ATOM     35  C   UNK d   1       7.732  -5.779  23.017  0.00  0.00     0.291 C 
ATOM     36  O   UNK d   1       6.300  -5.709  22.962  0.00  0.00    -0.351 OA
ATOM     37  C   UNK d   1       5.633  -5.393  24.187  0.00  0.00     0.152 C 
ATOM     38  C   UNK d   1       6.434  -5.852  25.410  0.00  0.00     0.178 C 
ATOM     39  C   UNK d   1       4.251  -6.035  24.117  0.00  0.00     0.042 C 
ATOM     40  C   UNK d   1       7.768  -5.090  25.451  0.00  0.00     0.183 C 
ATOM     41  C   UNK d   1       8.326  -4.794  24.048  0.00  0.00     0.204 C 
BRANCH  38  42
ATOM     42  O   UNK d   1       5.757  -5.633  26.648  0.00  0.00    -0.390 OA
ATOM     43  H   UNK d   1       5.960  -4.728  26.943  0.00  0.00     0.210 HD
ENDBRANCH  38  42
BRANCH  40  44
ATOM     44  O   UNK d   1       8.723  -5.872  26.204  0.00  0.00    -0.390 OA
ATOM     45  H   UNK d   1       8.264  -6.711  26.410  0.00  0.00     0.210 HD
ENDBRANCH  40  44
BRANCH  41  46
ATOM     46  O   UNK d   1       9.761  -4.818  24.088  0.00  0.00    -0.388 OA
ATOM     47  H   UNK d   1      10.020  -4.004  24.568  0.00  0.00     0.210 HD
ENDBRANCH  41  46
ENDBRANCH  34  35
ENDBRANCH  33  34
ENDBRANCH   2  33
BRANCH   4  48
ATOM     48  O   UNK d   1       9.901  -3.395  17.112  0.00  0.00    -0.390 OA
ATOM     49  H   UNK d   1      10.569  -3.281  17.813  0.00  0.00     0.210 HD
ENDBRANCH   4  48
BRANCH   3  50
ATOM     50  O   UNK d   1       8.807  -5.886  18.024  0.00  0.00    -0.390 OA
ATOM     51  H   UNK d   1       9.766  -6.038  17.939  0.00  0.00     0.210 HD
ENDBRANCH   3  50
TORSDOF 15
ENDMDL
MODEL 5
REMARK VINA RESULT:      -8.6      1.974      6.767
REMARK  15 active torsions:
REMARK  status: ('A' for Active; 'I' for Inactive)
REMARK    1  A    between atoms: O_2  and  C_21 
REMARK    2  A    between atoms: O_2  and  C_25 
REMARK    3  A    between atoms: O_4  and  C_17 
REMARK    4  A    between atoms: O_5  and  C_24 
REMARK    5  A    between atoms: O_5  and  C_28 
REMARK    6  A    between atoms: O_6  and  C_18 
REMARK    7  A    between atoms: O_7  and  C_19 
REMARK    8  A    between atoms: O_8  and  C_20 
REMARK    9  A    between atoms: O_9  and  C_22 
REMARK   10  A    between atoms: O_10  and  C_23 
REMARK   11  A    between atoms: O_12  and  C_35 
REMARK   12  A    between atoms: O_14  and  C_42 
REMARK   13  A    between atoms: O_15  and  C_40 
REMARK   14  A    between atoms: C_16  and  C_25 
REMARK   15  A    between atoms: C_33  and  C_37 
ROOT
ATOM      1  O   UNK d   1       8.700  -2.912  21.233  0.00  0.00    -0.348 OA
ATOM      2  C   UNK d   1       7.965  -3.995  21.814  0.00  0.00     0.180 C 
ATOM      3  C   UNK d   1       7.951  -5.180  20.834  0.00  0.00     0.180 C 
ATOM      4  C   UNK d   1       7.388  -4.731  19.483  0.00  0.00     0.183 C 
ATOM      5  C   UNK d   1       8.131  -3.502  18.951  0.00  0.00     0.205 C 
ATOM      6  C   UNK d   1       8.118  -2.403  20.031  0.00  0.00     0.298 C 
ENDROOT
BRANCH   6   7
ATOM      7  O   UNK d   1       8.903  -1.296  19.568  0.00  0.00    -0.318 OA
BRANCH   7   8
ATOM      8  C   UNK d   1       8.767  -0.105  20.228  0.00  0.00     0.077 A 
ATOM      9  C   UNK d   1       9.683   0.458  21.114  0.00  0.00     0.074 A 
ATOM     10  C   UNK d   1       9.376   1.643  21.793  0.00  0.00     0.089 A 
ATOM     11  O   UNK d   1      10.314   2.030  22.710  0.00  0.00    -0.340 OA
ATOM     12  C   UNK d   1       8.181   2.320  21.541  0.00  0.00     0.076 A 
ATOM     13  C   UNK d   1       9.880   2.953  23.714  0.00  0.00     0.169 C 
ATOM     14  C   UNK d   1       9.036   4.086  23.156  0.00  0.00     0.121 C 
ATOM     15  C   UNK d   1       7.921   3.575  22.290  0.00  0.00     0.167 C 
ATOM     16  O   UNK d   1       6.881   4.215  22.181  0.00  0.00    -0.292 OA
ATOM     17  C   UNK d   1       7.279   1.772  20.621  0.00  0.00     0.085 A 
ATOM     18  C   UNK d   1       7.568   0.564  19.979  0.00  0.00     0.074 A 
BRANCH  13  19
ATOM     19  C   UNK d   1       9.317   2.249  24.947  0.00  0.00    -0.026 A 
ATOM     20  C   UNK d   1       9.652   0.933  25.298  0.00  0.00     0.049 A 
ATOM     21  C   UNK d   1       9.115   0.341  26.446  0.00  0.00     0.099 A 
ATOM     22  C   UNK d   1       8.224   1.033  27.274  0.00  0.00     0.101 A 
ATOM     23  C   UNK d   1       7.880   2.339  26.930  0.00  0.00     0.040 A 
ATOM     24  C   UNK d   1       8.421   2.938  25.782  0.00  0.00     0.012 A 
BRANCH  21  25
ATOM     25  O   UNK d   1       9.467  -0.944  26.772  0.00  0.00    -0.358 OA
ATOM     26  H   UNK d   1       9.004  -1.206  27.581  0.00  0.00     0.217 HD
ENDBRANCH  21  25
BRANCH  22  27
ATOM     27  O   UNK d   1       7.763   0.356  28.371  0.00  0.00    -0.353 OA
ATOM     28  C   UNK d   1       7.870   1.000  29.632  0.00  0.00     0.210 C 
ENDBRANCH  22  27
ENDBRANCH  13  19
BRANCH  17  29
ATOM     29  O   UNK d   1       6.095   2.393  20.343  0.00  0.00    -0.360 OA
ATOM     30  H   UNK d   1       5.693   2.738  21.155  0.00  0.00     0.217 HD
ENDBRANCH  17  29
ENDBRANCH   7   8
ENDBRANCH   6   7
BRANCH   5  31
ATOM     31  O   UNK d   1       7.483  -3.070  17.745  0.00  0.00    -0.388 OA
ATOM     32  H   UNK d   1       8.157  -2.555  17.260  0.00  0.00     0.210 HD
ENDBRANCH   5  31
BRANCH   2  33
ATOM     33  C   UNK d   1       8.636  -4.401  23.140  0.00  0.00     0.205 C 
BRANCH  33  34
ATOM     34  O   UNK d   1       7.895  -3.964  24.286  0.00  0.00    -0.356 OA
BRANCH  34  35
ATOM     35  C   UNK d   1       7.638  -5.002  25.240  0.00  0.00     0.291 C 
ATOM     36  O   UNK d   1       6.294  -5.475  25.068  0.00  0.00    -0.351 OA
ATOM     37  C   UNK d   1       5.667  -6.039  26.222  0.00  0.00     0.152 C 
ATOM     38  C   UNK d   1       6.689  -6.655  27.185  0.00  0.00     0.178 C 
ATOM     39  C   UNK d   1       4.647  -7.056  25.720  0.00  0.00     0.042 C 
ATOM     40  C   UNK d   1       7.615  -5.547  27.710  0.00  0.00     0.183 C 
ATOM     41  C   UNK d   1       7.886  -4.454  26.662  0.00  0.00     0.204 C 
BRANCH  38  42
ATOM     42  O   UNK d   1       6.091  -7.307  28.306  0.00  0.00    -0.390 OA
ATOM     43  H   UNK d   1       5.663  -6.625  28.854  0.00  0.00     0.210 HD
ENDBRANCH  38  42
BRANCH  40  44
ATOM     44  O   UNK d   1       8.862  -6.148  28.127  0.00  0.00    -0.390 OA
ATOM     45  H   UNK d   1       9.534  -5.445  28.021  0.00  0.00     0.210 HD
ENDBRANCH  40  44
BRANCH  41  46
ATOM     46  O   UNK d   1       9.213  -3.936  26.842  0.00  0.00    -0.388 OA
ATOM     47  H   UNK d   1       9.783  -4.725  26.964  0.00  0.00     0.210 HD
ENDBRANCH  41  46
ENDBRANCH  34  35
ENDBRANCH  33  34
ENDBRANCH   2  33
BRANCH   4  48
ATOM     48  O   UNK d   1       7.495  -5.797  18.523  0.00  0.00    -0.390 OA
ATOM     49  H   UNK d   1       7.035  -6.563  18.913  0.00  0.00     0.210 HD
ENDBRANCH   4  48
BRANCH   3  50
ATOM     50  O   UNK d   1       7.156  -6.257  21.335  0.00  0.00    -0.390 OA
ATOM     51  H   UNK d   1       7.440  -7.062  20.866  0.00  0.00     0.210 HD
ENDBRANCH   3  50
TORSDOF 15
ENDMDL
MODEL 6
REMARK VINA RESULT:      -8.5      2.138      7.203
REMARK  15 active torsions:
REMARK  status: ('A' for Active; 'I' for Inactive)
REMARK    1  A    between atoms: O_2  and  C_21 
REMARK    2  A    between atoms: O_2  and  C_25 
REMARK    3  A    between atoms: O_4  and  C_17 
REMARK    4  A    between atoms: O_5  and  C_24 
REMARK    5  A    between atoms: O_5  and  C_28 
REMARK    6  A    between atoms: O_6  and  C_18 
REMARK    7  A    between atoms: O_7  and  C_19 
REMARK    8  A    between atoms: O_8  and  C_20 
REMARK    9  A    between atoms: O_9  and  C_22 
REMARK   10  A    between atoms: O_10  and  C_23 
REMARK   11  A    between atoms: O_12  and  C_35 
REMARK   12  A    between atoms: O_14  and  C_42 
REMARK   13  A    between atoms: O_15  and  C_40 
REMARK   14  A    between atoms: C_16  and  C_25 
REMARK   15  A    between atoms: C_33  and  C_37 
ROOT
ATOM      1  O   UNK d   1       9.237   1.076  24.497  0.00  0.00    -0.348 OA
ATOM      2  C   UNK d   1       9.301   1.881  23.315  0.00  0.00     0.180 C 
ATOM      3  C   UNK d   1      10.119   1.141  22.244  0.00  0.00     0.180 C 
ATOM      4  C   UNK d   1      11.499   0.780  22.799  0.00  0.00     0.183 C 
ATOM      5  C   UNK d   1      11.384   0.017  24.122  0.00  0.00     0.205 C 
ATOM      6  C   UNK d   1      10.511   0.830  25.095  0.00  0.00     0.298 C 
ENDROOT
BRANCH   6   7
ATOM      7  O   UNK d   1      10.321   0.064  26.293  0.00  0.00    -0.318 OA
BRANCH   7   8
ATOM      8  C   UNK d   1       9.401  -0.949  26.257  0.00  0.00     0.077 A 
ATOM      9  C   UNK d   1       9.652  -2.281  25.940  0.00  0.00     0.074 A 
ATOM     10  C   UNK d   1       8.598  -3.199  25.851  0.00  0.00     0.089 A 
ATOM     11  O   UNK d   1       8.968  -4.446  25.429  0.00  0.00    -0.340 OA
ATOM     12  C   UNK d   1       7.291  -2.813  26.149  0.00  0.00     0.076 A 
ATOM     13  C   UNK d   1       7.924  -5.279  24.912  0.00  0.00     0.169 C 
ATOM     14  C   UNK d   1       6.662  -5.244  25.757  0.00  0.00     0.121 C 
ATOM     15  C   UNK d   1       6.222  -3.838  26.042  0.00  0.00     0.167 C 
ATOM     16  O   UNK d   1       5.036  -3.589  26.231  0.00  0.00    -0.292 OA
ATOM     17  C   UNK d   1       7.046  -1.482  26.505  0.00  0.00     0.085 A 
ATOM     18  C   UNK d   1       8.094  -0.556  26.548  0.00  0.00     0.074 A 
BRANCH  13  19
ATOM     19  C   UNK d   1       7.724  -5.094  23.409  0.00  0.00    -0.026 A 
ATOM     20  C   UNK d   1       8.248  -4.008  22.694  0.00  0.00     0.049 A 
ATOM     21  C   UNK d   1       8.044  -3.894  21.314  0.00  0.00     0.099 A 
ATOM     22  C   UNK d   1       7.306  -4.850  20.607  0.00  0.00     0.101 A 
ATOM     23  C   UNK d   1       6.775  -5.930  21.310  0.00  0.00     0.040 A 
ATOM     24  C   UNK d   1       6.982  -6.049  22.693  0.00  0.00     0.012 A 
BRANCH  21  25
ATOM     25  O   UNK d   1       8.576  -2.828  20.637  0.00  0.00    -0.358 OA
ATOM     26  H   UNK d   1       7.898  -2.144  20.536  0.00  0.00     0.217 HD
ENDBRANCH  21  25
BRANCH  22  27
ATOM     27  O   UNK d   1       7.171  -4.639  19.261  0.00  0.00    -0.353 OA
ATOM     28  C   UNK d   1       8.176  -5.170  18.410  0.00  0.00     0.210 C 
ENDBRANCH  22  27
ENDBRANCH  13  19
BRANCH  17  29
ATOM     29  O   UNK d   1       5.784  -1.053  26.802  0.00  0.00    -0.360 OA
ATOM     30  H   UNK d   1       5.342  -1.681  27.395  0.00  0.00     0.217 HD
ENDBRANCH  17  29
ENDBRANCH   7   8
ENDBRANCH   6   7
BRANCH   5  31
ATOM     31  O   UNK d   1      12.707  -0.190  24.640  0.00  0.00    -0.388 OA
ATOM     32  H   UNK d   1      13.038  -0.992  24.191  0.00  0.00     0.210 HD
ENDBRANCH   5  31
BRANCH   2  33
ATOM     33  C   UNK d   1       7.870   2.148  22.812  0.00  0.00     0.205 C 
BRANCH  33  34
ATOM     34  O   UNK d   1       7.141   0.939  22.566  0.00  0.00    -0.356 OA
BRANCH  34  35
ATOM     35  C   UNK d   1       6.714   0.785  21.207  0.00  0.00     0.291 C 
ATOM     36  O   UNK d   1       7.781   0.205  20.442  0.00  0.00    -0.351 OA
ATOM     37  C   UNK d   1       7.795   0.504  19.045  0.00  0.00     0.152 C 
ATOM     38  C   UNK d   1       6.388   0.779  18.504  0.00  0.00     0.178 C 
ATOM     39  C   UNK d   1       8.473  -0.671  18.346  0.00  0.00     0.042 C 
ATOM     40  C   UNK d   1       5.819   2.029  19.194  0.00  0.00     0.183 C 
ATOM     41  C   UNK d   1       6.282   2.162  20.655  0.00  0.00     0.204 C 
BRANCH  38  42
ATOM     42  O   UNK d   1       6.354   0.994  17.092  0.00  0.00    -0.390 OA
ATOM     43  H   UNK d   1       6.301   1.955  16.938  0.00  0.00     0.210 HD
ENDBRANCH  38  42
BRANCH  40  44
ATOM     44  O   UNK d   1       4.377   1.971  19.139  0.00  0.00    -0.390 OA
ATOM     45  H   UNK d   1       4.148   2.124  18.200  0.00  0.00     0.210 HD
ENDBRANCH  40  44
BRANCH  41  46
ATOM     46  O   UNK d   1       5.245   2.779  21.432  0.00  0.00    -0.388 OA
ATOM     47  H   UNK d   1       5.016   2.123  22.124  0.00  0.00     0.210 HD
ENDBRANCH  41  46
ENDBRANCH  34  35
ENDBRANCH  33  34
ENDBRANCH   2  33
BRANCH   4  48
ATOM     48  O   UNK d   1      12.219  -0.029  21.851  0.00  0.00    -0.390 OA
ATOM     49  H   UNK d   1      11.689  -0.838  21.726  0.00  0.00     0.210 HD
ENDBRANCH   4  48
BRANCH   3  50
ATOM     50  O   UNK d   1      10.284   1.942  21.072  0.00  0.00    -0.390 OA
ATOM     51  H   UNK d   1       9.993   1.402  20.315  0.00  0.00     0.210 HD
ENDBRANCH   3  50
TORSDOF 15
ENDMDL
MODEL 7
REMARK VINA RESULT:      -8.3      2.636      7.251
REMARK  15 active torsions:
REMARK  status: ('A' for Active; 'I' for Inactive)
REMARK    1  A    between atoms: O_2  and  C_21 
REMARK    2  A    between atoms: O_2  and  C_25 
REMARK    3  A    between atoms: O_4  and  C_17 
REMARK    4  A    between atoms: O_5  and  C_24 
REMARK    5  A    between atoms: O_5  and  C_28 
REMARK    6  A    between atoms: O_6  and  C_18 
REMARK    7  A    between atoms: O_7  and  C_19 
REMARK    8  A    between atoms: O_8  and  C_20 
REMARK    9  A    between atoms: O_9  and  C_22 
REMARK   10  A    between atoms: O_10  and  C_23 
REMARK   11  A    between atoms: O_12  and  C_35 
REMARK   12  A    between atoms: O_14  and  C_42 
REMARK   13  A    between atoms: O_15  and  C_40 
REMARK   14  A    between atoms: C_16  and  C_25 
REMARK   15  A    between atoms: C_33  and  C_37 
ROOT
ATOM      1  O   UNK d   1       8.826   0.748  21.759  0.00  0.00    -0.348 OA
ATOM      2  C   UNK d   1       7.728   1.263  20.998  0.00  0.00     0.180 C 
ATOM      3  C   UNK d   1       6.775   0.110  20.641  0.00  0.00     0.180 C 
ATOM      4  C   UNK d   1       7.544  -0.994  19.910  0.00  0.00     0.183 C 
ATOM      5  C   UNK d   1       8.774  -1.436  20.708  0.00  0.00     0.205 C 
ATOM      6  C   UNK d   1       9.625  -0.197  21.045  0.00  0.00     0.298 C 
ENDROOT
BRANCH   6   7
ATOM      7  O   UNK d   1      10.719  -0.604  21.879  0.00  0.00    -0.318 OA
BRANCH   7   8
ATOM      8  C   UNK d   1      10.415  -1.194  23.076  0.00  0.00     0.077 A 
ATOM      9  C   UNK d   1      10.361  -2.562  23.332  0.00  0.00     0.074 A 
ATOM     10  C   UNK d   1       9.947  -3.032  24.584  0.00  0.00     0.089 A 
ATOM     11  O   UNK d   1       9.837  -4.393  24.669  0.00  0.00    -0.340 OA
ATOM     12  C   UNK d   1       9.652  -2.142  25.618  0.00  0.00     0.076 A 
ATOM     13  C   UNK d   1       9.029  -4.901  25.737  0.00  0.00     0.169 C 
ATOM     14  C   UNK d   1       9.284  -4.202  27.061  0.00  0.00     0.121 C 
ATOM     15  C   UNK d   1       9.225  -2.708  26.923  0.00  0.00     0.167 C 
ATOM     16  O   UNK d   1       8.893  -2.012  27.877  0.00  0.00    -0.292 OA
ATOM     17  C   UNK d   1       9.744  -0.768  25.369  0.00  0.00     0.085 A 
ATOM     18  C   UNK d   1      10.114  -0.300  24.104  0.00  0.00     0.074 A 
BRANCH  13  19
ATOM     19  C   UNK d   1       7.562  -5.049  25.335  0.00  0.00    -0.026 A 
ATOM     20  C   UNK d   1       7.143  -5.191  24.004  0.00  0.00     0.049 A 
ATOM     21  C   UNK d   1       5.786  -5.335  23.694  0.00  0.00     0.099 A 
ATOM     22  C   UNK d   1       4.806  -5.335  24.694  0.00  0.00     0.101 A 
ATOM     23  C   UNK d   1       5.214  -5.190  26.019  0.00  0.00     0.040 A 
ATOM     24  C   UNK d   1       6.573  -5.049  26.334  0.00  0.00     0.012 A 
BRANCH  21  25
ATOM     25  O   UNK d   1       5.403  -5.482  22.386  0.00  0.00    -0.358 OA
ATOM     26  H   UNK d   1       4.685  -4.861  22.192  0.00  0.00     0.217 HD
ENDBRANCH  21  25
BRANCH  22  27
ATOM     27  O   UNK d   1       3.512  -5.486  24.275  0.00  0.00    -0.353 OA
ATOM     28  C   UNK d   1       2.519  -5.684  25.271  0.00  0.00     0.210 C 
ENDBRANCH  22  27
ENDBRANCH  13  19
BRANCH  17  29
ATOM     29  O   UNK d   1       9.461   0.145  26.345  0.00  0.00    -0.360 OA
ATOM     30  H   UNK d   1       9.737  -0.190  27.214  0.00  0.00     0.217 HD
ENDBRANCH  17  29
ENDBRANCH   7   8
ENDBRANCH   6   7
BRANCH   5  31
ATOM     31  O   UNK d   1       9.506  -2.386  19.919  0.00  0.00    -0.388 OA
ATOM     32  H   UNK d   1      10.189  -2.748  20.517  0.00  0.00     0.210 HD
ENDBRANCH   5  31
BRANCH   2  33
ATOM     33  C   UNK d   1       6.995   2.328  21.836  0.00  0.00     0.205 C 
BRANCH  33  34
ATOM     34  O   UNK d   1       7.507   3.648  21.616  0.00  0.00    -0.356 OA
BRANCH  34  35
ATOM     35  C   UNK d   1       8.305   4.147  22.697  0.00  0.00     0.291 C 
ATOM     36  O   UNK d   1       7.828   3.588  23.930  0.00  0.00    -0.351 OA
ATOM     37  C   UNK d   1       8.062   4.361  25.109  0.00  0.00     0.152 C 
ATOM     38  C   UNK d   1       9.312   5.240  24.979  0.00  0.00     0.178 C 
ATOM     39  C   UNK d   1       8.155   3.379  26.272  0.00  0.00     0.042 C 
ATOM     40  C   UNK d   1       9.095   6.257  23.848  0.00  0.00     0.183 C 
ATOM     41  C   UNK d   1       8.248   5.691  22.695  0.00  0.00     0.204 C 
BRANCH  38  42
ATOM     42  O   UNK d   1       9.627   5.959  26.172  0.00  0.00    -0.390 OA
ATOM     43  H   UNK d   1       9.023   5.655  26.872  0.00  0.00     0.210 HD
ENDBRANCH  38  42
BRANCH  40  44
ATOM     44  O   UNK d   1      10.385   6.675  23.350  0.00  0.00    -0.390 OA
ATOM     45  H   UNK d   1      10.446   6.304  22.447  0.00  0.00     0.210 HD
ENDBRANCH  40  44
BRANCH  41  46
ATOM     46  O   UNK d   1       8.681   6.268  21.454  0.00  0.00    -0.388 OA
ATOM     47  H   UNK d   1       7.857   6.482  20.967  0.00  0.00     0.210 HD
ENDBRANCH  41  46
ENDBRANCH  34  35
ENDBRANCH  33  34
ENDBRANCH   2  33
BRANCH   4  48
ATOM     48  O   UNK d   1       6.691  -2.131  19.692  0.00  0.00    -0.390 OA
ATOM     49  H   UNK d   1       5.898  -1.794  19.237  0.00  0.00     0.210 HD
ENDBRANCH   4  48
BRANCH   3  50
ATOM     50  O   UNK d   1       5.705   0.561  19.808  0.00  0.00    -0.390 OA
ATOM     51  H   UNK d   1       5.285   1.312  20.266  0.00  0.00     0.210 HD
ENDBRANCH   3  50
TORSDOF 15
ENDMDL
MODEL 8
REMARK VINA RESULT:      -8.3      2.167      3.264
REMARK  15 active torsions:
REMARK  status: ('A' for Active; 'I' for Inactive)
REMARK    1  A    between atoms: O_2  and  C_21 
REMARK    2  A    between atoms: O_2  and  C_25 
REMARK    3  A    between atoms: O_4  and  C_17 
REMARK    4  A    between atoms: O_5  and  C_24 
REMARK    5  A    between atoms: O_5  and  C_28 
REMARK    6  A    between atoms: O_6  and  C_18 
REMARK    7  A    between atoms: O_7  and  C_19 
REMARK    8  A    between atoms: O_8  and  C_20 
REMARK    9  A    between atoms: O_9  and  C_22 
REMARK   10  A    between atoms: O_10  and  C_23 
REMARK   11  A    between atoms: O_12  and  C_35 
REMARK   12  A    between atoms: O_14  and  C_42 
REMARK   13  A    between atoms: O_15  and  C_40 
REMARK   14  A    between atoms: C_16  and  C_25 
REMARK   15  A    between atoms: C_33  and  C_37 
ROOT
ATOM      1  O   UNK d   1       9.349  -1.814  24.728  0.00  0.00    -0.348 OA
ATOM      2  C   UNK d   1       9.041  -1.013  25.874  0.00  0.00     0.180 C 
ATOM      3  C   UNK d   1       9.446  -1.775  27.147  0.00  0.00     0.180 C 
ATOM      4  C   UNK d   1       8.764  -3.145  27.173  0.00  0.00     0.183 C 
ATOM      5  C   UNK d   1       9.028  -3.922  25.880  0.00  0.00     0.205 C 
ATOM      6  C   UNK d   1       8.628  -3.046  24.678  0.00  0.00     0.298 C 
ENDROOT
BRANCH   6   7
ATOM      7  O   UNK d   1       8.974  -3.738  23.470  0.00  0.00    -0.318 OA
BRANCH   7   8
ATOM      8  C   UNK d   1       8.689  -3.119  22.283  0.00  0.00     0.077 A 
ATOM      9  C   UNK d   1       8.925  -1.782  21.972  0.00  0.00     0.074 A 
ATOM     10  C   UNK d   1       8.499  -1.254  20.747  0.00  0.00     0.089 A 
ATOM     11  O   UNK d   1       8.698   0.093  20.611  0.00  0.00    -0.340 OA
ATOM     12  C   UNK d   1       7.898  -2.071  19.789  0.00  0.00     0.076 A 
ATOM     13  C   UNK d   1       7.920   0.753  19.607  0.00  0.00     0.169 C 
ATOM     14  C   UNK d   1       7.864  -0.014  18.298  0.00  0.00     0.121 C 
ATOM     15  C   UNK d   1       7.477  -1.449  18.508  0.00  0.00     0.167 C 
ATOM     16  O   UNK d   1       6.893  -2.067  17.625  0.00  0.00    -0.292 OA
ATOM     17  C   UNK d   1       7.697  -3.424  20.089  0.00  0.00     0.085 A 
ATOM     18  C   UNK d   1       8.081  -3.939  21.331  0.00  0.00     0.074 A 
BRANCH  13  19
ATOM     19  C   UNK d   1       6.579   1.250  20.145  0.00  0.00    -0.026 A 
ATOM     20  C   UNK d   1       6.182   1.090  21.481  0.00  0.00     0.049 A 
ATOM     21  C   UNK d   1       4.946   1.575  21.922  0.00  0.00     0.099 A 
ATOM     22  C   UNK d   1       4.065   2.225  21.050  0.00  0.00     0.101 A 
ATOM     23  C   UNK d   1       4.449   2.383  19.719  0.00  0.00     0.040 A 
ATOM     24  C   UNK d   1       5.689   1.902  19.274  0.00  0.00     0.012 A 
BRANCH  21  25
ATOM     25  O   UNK d   1       4.587   1.415  23.235  0.00  0.00    -0.358 OA
ATOM     26  H   UNK d   1       5.384   1.400  23.785  0.00  0.00     0.217 HD
ENDBRANCH  21  25
BRANCH  22  27
ATOM     27  O   UNK d   1       2.885   2.660  21.592  0.00  0.00    -0.353 OA
ATOM     28  C   UNK d   1       1.755   2.725  20.735  0.00  0.00     0.210 C 
ENDBRANCH  22  27
ENDBRANCH  13  19
BRANCH  17  29
ATOM     29  O   UNK d   1       7.108  -4.265  19.188  0.00  0.00    -0.360 OA
ATOM     30  H   UNK d   1       7.657  -5.053  19.050  0.00  0.00     0.217 HD
ENDBRANCH  17  29
ENDBRANCH   7   8
ENDBRANCH   6   7
BRANCH   5  31
ATOM     31  O   UNK d   1       8.272  -5.143  25.924  0.00  0.00    -0.388 OA
ATOM     32  H   UNK d   1       7.346  -4.868  26.066  0.00  0.00     0.210 HD
ENDBRANCH   5  31
BRANCH   2  33
ATOM     33  C   UNK d   1       9.810   0.319  25.776  0.00  0.00     0.205 C 
BRANCH  33  34
ATOM     34  O   UNK d   1       9.613   0.974  24.517  0.00  0.00    -0.356 OA
BRANCH  34  35
ATOM     35  C   UNK d   1       9.496   2.399  24.617  0.00  0.00     0.291 C 
ATOM     36  O   UNK d   1       8.686   2.724  25.757  0.00  0.00    -0.351 OA
ATOM     37  C   UNK d   1       7.983   3.967  25.700  0.00  0.00     0.152 C 
ATOM     38  C   UNK d   1       8.709   4.997  24.827  0.00  0.00     0.178 C 
ATOM     39  C   UNK d   1       7.804   4.441  27.139  0.00  0.00     0.042 C 
ATOM     40  C   UNK d   1       8.763   4.481  23.381  0.00  0.00     0.183 C 
ATOM     41  C   UNK d   1       8.902   2.950  23.302  0.00  0.00     0.204 C 
BRANCH  38  42
ATOM     42  O   UNK d   1       8.080   6.280  24.820  0.00  0.00    -0.390 OA
ATOM     43  H   UNK d   1       7.474   6.318  25.581  0.00  0.00     0.210 HD
ENDBRANCH  38  42
BRANCH  40  44
ATOM     44  O   UNK d   1       9.874   5.110  22.707  0.00  0.00    -0.390 OA
ATOM     45  H   UNK d   1       9.635   6.057  22.644  0.00  0.00     0.210 HD
ENDBRANCH  40  44
BRANCH  41  46
ATOM     46  O   UNK d   1       9.675   2.599  22.145  0.00  0.00    -0.388 OA
ATOM     47  H   UNK d   1      10.234   3.383  21.960  0.00  0.00     0.210 HD
ENDBRANCH  41  46
ENDBRANCH  34  35
ENDBRANCH  33  34
ENDBRANCH   2  33
BRANCH   4  48
ATOM     48  O   UNK d   1       9.241  -3.916  28.290  0.00  0.00    -0.390 OA
ATOM     49  H   UNK d   1       8.472  -4.059  28.870  0.00  0.00     0.210 HD
ENDBRANCH   4  48
BRANCH   3  50
ATOM     50  O   UNK d   1       9.080  -1.051  28.323  0.00  0.00    -0.390 OA
ATOM     51  H   UNK d   1       8.142  -0.806  28.226  0.00  0.00     0.210 HD
ENDBRANCH   3  50
TORSDOF 15
ENDMDL
MODEL 9
REMARK VINA RESULT:      -8.3     30.702     32.887
REMARK  15 active torsions:
REMARK  status: ('A' for Active; 'I' for Inactive)
REMARK    1  A    between atoms: O_2  and  C_21 
REMARK    2  A    between atoms: O_2  and  C_25 
REMARK    3  A    between atoms: O_4  and  C_17 
REMARK    4  A    between atoms: O_5  and  C_24 
REMARK    5  A    between atoms: O_5  and  C_28 
REMARK    6  A    between atoms: O_6  and  C_18 
REMARK    7  A    between atoms: O_7  and  C_19 
REMARK    8  A    between atoms: O_8  and  C_20 
REMARK    9  A    between atoms: O_9  and  C_22 
REMARK   10  A    between atoms: O_10  and  C_23 
REMARK   11  A    between atoms: O_12  and  C_35 
REMARK   12  A    between atoms: O_14  and  C_42 
REMARK   13  A    between atoms: O_15  and  C_40 
REMARK   14  A    between atoms: C_16  and  C_25 
REMARK   15  A    between atoms: C_33  and  C_37 
ROOT
ATOM      1  O   UNK d   1      20.633   2.010  -6.957  0.00  0.00    -0.348 OA
ATOM      2  C   UNK d   1      21.335   2.815  -6.004  0.00  0.00     0.180 C 
ATOM      3  C   UNK d   1      22.428   1.966  -5.332  0.00  0.00     0.180 C 
ATOM      4  C   UNK d   1      21.806   0.712  -4.714  0.00  0.00     0.183 C 
ATOM      5  C   UNK d   1      20.971  -0.059  -5.740  0.00  0.00     0.205 C 
ATOM      6  C   UNK d   1      19.946   0.900  -6.375  0.00  0.00     0.298 C 
ENDROOT
BRANCH   6   7
ATOM      7  O   UNK d   1      19.240   0.200  -7.408  0.00  0.00    -0.318 OA
BRANCH   7   8
ATOM      8  C   UNK d   1      17.986  -0.264  -7.114  0.00  0.00     0.077 A 
ATOM      9  C   UNK d   1      17.514  -1.557  -7.321  0.00  0.00     0.074 A 
ATOM     10  C   UNK d   1      16.176  -1.874  -7.059  0.00  0.00     0.089 A 
ATOM     11  O   UNK d   1      15.817  -3.148  -7.405  0.00  0.00    -0.340 OA
ATOM     12  C   UNK d   1      15.311  -0.922  -6.516  0.00  0.00     0.076 A 
ATOM     13  C   UNK d   1      14.415  -3.392  -7.568  0.00  0.00     0.169 C 
ATOM     14  C   UNK d   1      13.571  -2.774  -6.467  0.00  0.00     0.121 C 
ATOM     15  C   UNK d   1      13.907  -1.326  -6.255  0.00  0.00     0.167 C 
ATOM     16  O   UNK d   1      13.056  -0.551  -5.830  0.00  0.00    -0.292 OA
ATOM     17  C   UNK d   1      15.799   0.367  -6.272  0.00  0.00     0.085 A 
ATOM     18  C   UNK d   1      17.123   0.694  -6.578  0.00  0.00     0.074 A 
BRANCH  13  19
ATOM     19  C   UNK d   1      13.942  -3.129  -8.996  0.00  0.00    -0.026 A 
ATOM     20  C   UNK d   1      12.679  -3.516  -9.468  0.00  0.00     0.049 A 
ATOM     21  C   UNK d   1      12.292  -3.238 -10.784  0.00  0.00     0.099 A 
ATOM     22  C   UNK d   1      13.149  -2.577 -11.671  0.00  0.00     0.101 A 
ATOM     23  C   UNK d   1      14.408  -2.194 -11.212  0.00  0.00     0.040 A 
ATOM     24  C   UNK d   1      14.798  -2.467  -9.892  0.00  0.00     0.012 A 
BRANCH  21  25
ATOM     25  O   UNK d   1      11.048  -3.618 -11.218  0.00  0.00    -0.358 OA
ATOM     26  H   UNK d   1      10.435  -3.621 -10.467  0.00  0.00     0.217 HD
ENDBRANCH  21  25
BRANCH  22  27
ATOM     27  O   UNK d   1      12.665  -2.356 -12.932  0.00  0.00    -0.353 OA
ATOM     28  C   UNK d   1      12.208  -1.048 -13.240  0.00  0.00     0.210 C 
ENDBRANCH  22  27
ENDBRANCH  13  19
BRANCH  17  29
ATOM     29  O   UNK d   1      14.992   1.337  -5.747  0.00  0.00    -0.360 OA
ATOM     30  H   UNK d   1      14.394   1.686  -6.426  0.00  0.00     0.217 HD
ENDBRANCH  17  29
ENDBRANCH   7   8
ENDBRANCH   6   7
BRANCH   5  31
ATOM     31  O   UNK d   1      20.329  -1.155  -5.070  0.00  0.00    -0.388 OA
ATOM     32  H   UNK d   1      19.377  -1.054  -5.262  0.00  0.00     0.210 HD
ENDBRANCH   5  31
BRANCH   2  33
ATOM     33  C   UNK d   1      21.961   4.021  -6.731  0.00  0.00     0.205 C 
BRANCH  33  34
ATOM     34  O   UNK d   1      21.938   5.213  -5.936  0.00  0.00    -0.356 OA
BRANCH  34  35
ATOM     35  C   UNK d   1      20.671   5.474  -5.320  0.00  0.00     0.291 C 
ATOM     36  O   UNK d   1      19.625   5.207  -6.265  0.00  0.00    -0.351 OA
ATOM     37  C   UNK d   1      18.404   5.928  -6.082  0.00  0.00     0.152 C 
ATOM     38  C   UNK d   1      18.174   6.299  -4.613  0.00  0.00     0.178 C 
ATOM     39  C   UNK d   1      17.286   5.060  -6.649  0.00  0.00     0.042 C 
ATOM     40  C   UNK d   1      19.294   7.246  -4.152  0.00  0.00     0.183 C 
ATOM     41  C   UNK d   1      20.645   6.935  -4.818  0.00  0.00     0.204 C 
BRANCH  38  42
ATOM     42  O   UNK d   1      16.921   6.943  -4.379  0.00  0.00    -0.390 OA
ATOM     43  H   UNK d   1      16.855   7.131  -3.426  0.00  0.00     0.210 HD
ENDBRANCH  38  42
BRANCH  40  44
ATOM     44  O   UNK d   1      19.419   7.148  -2.716  0.00  0.00    -0.390 OA
ATOM     45  H   UNK d   1      18.517   6.957  -2.391  0.00  0.00     0.210 HD
ENDBRANCH  40  44
BRANCH  41  46
ATOM     46  O   UNK d   1      21.710   7.234  -3.904  0.00  0.00    -0.388 OA
ATOM     47  H   UNK d   1      21.277   7.662  -3.135  0.00  0.00     0.210 HD
ENDBRANCH  41  46
ENDBRANCH  34  35
ENDBRANCH  33  34
ENDBRANCH   2  33
BRANCH   4  48
ATOM     48  O   UNK d   1      22.836  -0.152  -4.202  0.00  0.00    -0.390 OA
ATOM     49  H   UNK d   1      23.452   0.421  -3.710  0.00  0.00     0.210 HD
ENDBRANCH   4  48
BRANCH   3  50
ATOM     50  O   UNK d   1      23.102   2.703  -4.310  0.00  0.00    -0.390 OA
ATOM     51  H   UNK d   1      23.586   3.425  -4.751  0.00  0.00     0.210 HD
ENDBRANCH   3  50
TORSDOF 15
ENDMDL
