MODEL 1
REMARK VINA RESULT:      -8.4      0.000      0.000
REMARK  15 active torsions:
REMARK  status: ('A' for Active; 'I' for Inactive)
REMARK    1  A    between atoms: O_2  and  C_21 
REMARK    2  A    between atoms: O_2  and  C_25 
REMARK    3  A    between atoms: O_4  and  C_17 
REMARK    4  A    between atoms: O_5  and  C_24 
REMARK    5  A    between atoms: O_5  and  C_28 
REMARK    6  A    between atoms: O_6  and  C_18 
REMARK    7  A    between atoms: O_7  and  C_19 
REMARK    8  A    between atoms: O_8  and  C_20 
REMARK    9  A    between atoms: O_9  and  C_22 
REMARK   10  A    between atoms: O_10  and  C_23 
REMARK   11  A    between atoms: O_12  and  C_35 
REMARK   12  A    between atoms: O_14  and  C_42 
REMARK   13  A    between atoms: O_15  and  C_40 
REMARK   14  A    between atoms: C_16  and  C_25 
REMARK   15  A    between atoms: C_33  and  C_37 
ROOT
ATOM      1  O   UNK d   1       9.314  16.125   2.287  0.00  0.00    -0.348 OA
ATOM      2  C   UNK d   1       9.814  17.002   3.302  0.00  0.00     0.180 C 
ATOM      3  C   UNK d   1      11.075  16.384   3.928  0.00  0.00     0.180 C 
ATOM      4  C   UNK d   1      10.763  14.980   4.450  0.00  0.00     0.183 C 
ATOM      5  C   UNK d   1      10.127  14.110   3.362  0.00  0.00     0.205 C 
ATOM      6  C   UNK d   1       8.906  14.848   2.781  0.00  0.00     0.298 C 
ENDROOT
BRANCH   6   7
ATOM      7  O   UNK d   1       8.377  14.077   1.694  0.00  0.00    -0.318 OA
BRANCH   7   8
ATOM      8  C   UNK d   1       7.017  13.960   1.604  0.00  0.00     0.077 A 
ATOM      9  C   UNK d   1       6.153  13.572   2.625  0.00  0.00     0.074 A 
ATOM     10  C   UNK d   1       4.786  13.404   2.371  0.00  0.00     0.089 A 
ATOM     11  O   UNK d   1       4.069  12.919   3.430  0.00  0.00    -0.340 OA
ATOM     12  C   UNK d   1       4.254  13.692   1.113  0.00  0.00     0.076 A 
ATOM     13  C   UNK d   1       2.800  12.329   3.124  0.00  0.00     0.169 C 
ATOM     14  C   UNK d   1       1.990  13.144   2.130  0.00  0.00     0.121 C 
ATOM     15  C   UNK d   1       2.795  13.500   0.914  0.00  0.00     0.167 C 
ATOM     16  O   UNK d   1       2.240  13.674  -0.165  0.00  0.00    -0.292 OA
ATOM     17  C   UNK d   1       5.119  14.120   0.099  0.00  0.00     0.085 A 
ATOM     18  C   UNK d   1       6.491  14.242   0.343  0.00  0.00     0.074 A 
BRANCH  13  19
ATOM     19  C   UNK d   1       2.911  10.835   2.825  0.00  0.00    -0.026 A 
ATOM     20  C   UNK d   1       4.138  10.161   2.730  0.00  0.00     0.049 A 
ATOM     21  C   UNK d   1       4.180   8.788   2.466  0.00  0.00     0.099 A 
ATOM     22  C   UNK d   1       3.009   8.045   2.280  0.00  0.00     0.101 A 
ATOM     23  C   UNK d   1       1.785   8.708   2.366  0.00  0.00     0.040 A 
ATOM     24  C   UNK d   1       1.739  10.084   2.636  0.00  0.00     0.012 A 
BRANCH  21  25
ATOM     25  O   UNK d   1       5.392   8.151   2.388  0.00  0.00    -0.358 OA
ATOM     26  H   UNK d   1       5.880   8.486   1.622  0.00  0.00     0.217 HD
ENDBRANCH  21  25
BRANCH  22  27
ATOM     27  O   UNK d   1       3.170   6.709   2.029  0.00  0.00    -0.353 OA
ATOM     28  C   UNK d   1       2.011   5.961   1.691  0.00  0.00     0.210 C 
ENDBRANCH  22  27
ENDBRANCH  13  19
BRANCH  17  29
ATOM     29  O   UNK d   1       4.650  14.410  -1.150  0.00  0.00    -0.360 OA
ATOM     30  H   UNK d   1       4.805  15.344  -1.363  0.00  0.00     0.217 HD
ENDBRANCH  17  29
ENDBRANCH   7   8
ENDBRANCH   6   7
BRANCH   5  31
ATOM     31  O   UNK d   1       9.759  12.852   3.947  0.00  0.00    -0.388 OA
ATOM     32  H   UNK d   1      10.091  12.887   4.865  0.00  0.00     0.210 HD
ENDBRANCH   5  31
BRANCH   2  33
ATOM     33  C   UNK d   1      10.141  18.368   2.668  0.00  0.00     0.205 C 
BRANCH  33  34
ATOM     34  O   UNK d   1      10.366  18.277   1.256  0.00  0.00    -0.356 OA
BRANCH  34  35
ATOM     35  C   UNK d   1       9.967  19.445   0.529  0.00  0.00     0.291 C 
ATOM     36  O   UNK d   1      10.708  20.575   1.013  0.00  0.00    -0.351 OA
ATOM     37  C   UNK d   1      10.083  21.853   0.868  0.00  0.00     0.152 C 
ATOM     38  C   UNK d   1       9.126  21.889  -0.329  0.00  0.00     0.178 C 
ATOM     39  C   UNK d   1      11.202  22.883   0.756  0.00  0.00     0.042 C 
ATOM     40  C   UNK d   1       7.984  20.889  -0.090  0.00  0.00     0.183 C 
ATOM     41  C   UNK d   1       8.442  19.639   0.680  0.00  0.00     0.204 C 
BRANCH  38  42
ATOM     42  O   UNK d   1       8.552  23.177  -0.557  0.00  0.00    -0.390 OA
ATOM     43  H   UNK d   1       8.348  23.248  -1.507  0.00  0.00     0.210 HD
ENDBRANCH  38  42
BRANCH  40  44
ATOM     44  O   UNK d   1       7.432  20.505  -1.368  0.00  0.00    -0.390 OA
ATOM     45  H   UNK d   1       7.267  21.345  -1.841  0.00  0.00     0.210 HD
ENDBRANCH  40  44
BRANCH  41  46
ATOM     46  O   UNK d   1       7.685  18.501   0.240  0.00  0.00    -0.388 OA
ATOM     47  H   UNK d   1       7.375  18.730  -0.661  0.00  0.00     0.210 HD
ENDBRANCH  41  46
ENDBRANCH  34  35
ENDBRANCH  33  34
ENDBRANCH   2  33
BRANCH   4  48
ATOM     48  O   UNK d   1      11.967  14.344   4.915  0.00  0.00    -0.390 OA
ATOM     49  H   UNK d   1      11.803  13.384   4.870  0.00  0.00     0.210 HD
ENDBRANCH   4  48
BRANCH   3  50
ATOM     50  O   UNK d   1      11.564  17.184   5.007  0.00  0.00    -0.390 OA
ATOM     51  H   UNK d   1      11.228  18.088   4.866  0.00  0.00     0.210 HD
ENDBRANCH   3  50
TORSDOF 15
ENDMDL
MODEL 2
REMARK VINA RESULT:      -8.4      2.857      6.881
REMARK  15 active torsions:
REMARK  status: ('A' for Active; 'I' for Inactive)
REMARK    1  A    between atoms: O_2  and  C_21 
REMARK    2  A    between atoms: O_2  and  C_25 
REMARK    3  A    between atoms: O_4  and  C_17 
REMARK    4  A    between atoms: O_5  and  C_24 
REMARK    5  A    between atoms: O_5  and  C_28 
REMARK    6  A    between atoms: O_6  and  C_18 
REMARK    7  A    between atoms: O_7  and  C_19 
REMARK    8  A    between atoms: O_8  and  C_20 
REMARK    9  A    between atoms: O_9  and  C_22 
REMARK   10  A    between atoms: O_10  and  C_23 
REMARK   11  A    between atoms: O_12  and  C_35 
REMARK   12  A    between atoms: O_14  and  C_42 
REMARK   13  A    between atoms: O_15  and  C_40 
REMARK   14  A    between atoms: C_16  and  C_25 
REMARK   15  A    between atoms: C_33  and  C_37 
ROOT
ATOM      1  O   UNK d   1       9.302  20.753   0.319  0.00  0.00    -0.348 OA
ATOM      2  C   UNK d   1      10.101  21.888  -0.030  0.00  0.00     0.180 C 
ATOM      3  C   UNK d   1       9.184  23.100  -0.265  0.00  0.00     0.180 C 
ATOM      4  C   UNK d   1       8.132  22.759  -1.324  0.00  0.00     0.183 C 
ATOM      5  C   UNK d   1       7.377  21.476  -0.965  0.00  0.00     0.205 C 
ATOM      6  C   UNK d   1       8.396  20.350  -0.710  0.00  0.00     0.298 C 
ENDROOT
BRANCH   6   7
ATOM      7  O   UNK d   1       7.690  19.180  -0.274  0.00  0.00    -0.318 OA
BRANCH   7   8
ATOM      8  C   UNK d   1       8.189  18.506   0.807  0.00  0.00     0.077 A 
ATOM      9  C   UNK d   1       9.091  17.445   0.774  0.00  0.00     0.074 A 
ATOM     10  C   UNK d   1       9.450  16.783   1.955  0.00  0.00     0.089 A 
ATOM     11  O   UNK d   1      10.258  15.696   1.770  0.00  0.00    -0.340 OA
ATOM     12  C   UNK d   1       8.970  17.220   3.190  0.00  0.00     0.076 A 
ATOM     13  C   UNK d   1      10.306  14.749   2.843  0.00  0.00     0.169 C 
ATOM     14  C   UNK d   1      10.425  15.403   4.209  0.00  0.00     0.121 C 
ATOM     15  C   UNK d   1       9.397  16.478   4.404  0.00  0.00     0.167 C 
ATOM     16  O   UNK d   1       8.990  16.748   5.529  0.00  0.00    -0.292 OA
ATOM     17  C   UNK d   1       8.094  18.311   3.225  0.00  0.00     0.085 A 
ATOM     18  C   UNK d   1       7.700  18.941   2.040  0.00  0.00     0.074 A 
BRANCH  13  19
ATOM     19  C   UNK d   1       9.232  13.670   2.714  0.00  0.00    -0.026 A 
ATOM     20  C   UNK d   1       8.297  13.640   1.669  0.00  0.00     0.049 A 
ATOM     21  C   UNK d   1       7.342  12.621   1.593  0.00  0.00     0.099 A 
ATOM     22  C   UNK d   1       7.280  11.608   2.556  0.00  0.00     0.101 A 
ATOM     23  C   UNK d   1       8.201  11.633   3.602  0.00  0.00     0.040 A 
ATOM     24  C   UNK d   1       9.163  12.650   3.679  0.00  0.00     0.012 A 
BRANCH  21  25
ATOM     25  O   UNK d   1       6.446  12.609   0.555  0.00  0.00    -0.358 OA
ATOM     26  H   UNK d   1       6.031  13.482   0.482  0.00  0.00     0.217 HD
ENDBRANCH  21  25
BRANCH  22  27
ATOM     27  O   UNK d   1       6.306  10.662   2.381  0.00  0.00    -0.353 OA
ATOM     28  C   UNK d   1       5.952   9.869   3.504  0.00  0.00     0.210 C 
ENDBRANCH  22  27
ENDBRANCH  13  19
BRANCH  17  29
ATOM     29  O   UNK d   1       7.592  18.774   4.407  0.00  0.00    -0.360 OA
ATOM     30  H   UNK d   1       6.714  18.397   4.575  0.00  0.00     0.217 HD
ENDBRANCH  17  29
ENDBRANCH   7   8
ENDBRANCH   6   7
BRANCH   5  31
ATOM     31  O   UNK d   1       6.490  21.156  -2.048  0.00  0.00    -0.388 OA
ATOM     32  H   UNK d   1       7.008  21.314  -2.862  0.00  0.00     0.210 HD
ENDBRANCH   5  31
BRANCH   2  33
ATOM     33  C   UNK d   1      11.091  22.175   1.115  0.00  0.00     0.205 C 
BRANCH  33  34
ATOM     34  O   UNK d   1      11.840  21.015   1.497  0.00  0.00    -0.356 OA
BRANCH  34  35
ATOM     35  C   UNK d   1      11.440  20.456   2.754  0.00  0.00     0.291 C 
ATOM     36  O   UNK d   1      10.521  21.352   3.396  0.00  0.00    -0.351 OA
ATOM     37  C   UNK d   1      10.471  21.293   4.824  0.00  0.00     0.152 C 
ATOM     38  C   UNK d   1      10.843  19.904   5.353  0.00  0.00     0.178 C 
ATOM     39  C   UNK d   1       9.066  21.721   5.236  0.00  0.00     0.042 C 
ATOM     40  C   UNK d   1      12.300  19.595   4.973  0.00  0.00     0.183 C 
ATOM     41  C   UNK d   1      12.698  20.195   3.613  0.00  0.00     0.204 C 
BRANCH  38  42
ATOM     42  O   UNK d   1      10.717  19.784   6.771  0.00  0.00    -0.390 OA
ATOM     43  H   UNK d   1       9.819  20.069   7.015  0.00  0.00     0.210 HD
ENDBRANCH  38  42
BRANCH  40  44
ATOM     44  O   UNK d   1      12.475  18.161   4.947  0.00  0.00    -0.390 OA
ATOM     45  H   UNK d   1      13.351  18.001   5.353  0.00  0.00     0.210 HD
ENDBRANCH  40  44
BRANCH  41  46
ATOM     46  O   UNK d   1      13.649  19.334   2.970  0.00  0.00    -0.388 OA
ATOM     47  H   UNK d   1      13.813  18.608   3.608  0.00  0.00     0.210 HD
ENDBRANCH  41  46
ENDBRANCH  34  35
ENDBRANCH  33  34
ENDBRANCH   2  33
BRANCH   4  48
ATOM     48  O   UNK d   1       7.190  23.838  -1.451  0.00  0.00    -0.390 OA
ATOM     49  H   UNK d   1       7.073  23.986  -2.408  0.00  0.00     0.210 HD
ENDBRANCH   4  48
BRANCH   3  50
ATOM     50  O   UNK d   1       9.930  24.238  -0.700  0.00  0.00    -0.390 OA
ATOM     51  H   UNK d   1       9.292  24.963  -0.833  0.00  0.00     0.210 HD
ENDBRANCH   3  50
TORSDOF 15
ENDMDL
MODEL 3
REMARK VINA RESULT:      -8.3      2.514      4.720
REMARK  15 active torsions:
REMARK  status: ('A' for Active; 'I' for Inactive)
REMARK    1  A    between atoms: O_2  and  C_21 
REMARK    2  A    between atoms: O_2  and  C_25 
REMARK    3  A    between atoms: O_4  and  C_17 
REMARK    4  A    between atoms: O_5  and  C_24 
REMARK    5  A    between atoms: O_5  and  C_28 
REMARK    6  A    between atoms: O_6  and  C_18 
REMARK    7  A    between atoms: O_7  and  C_19 
REMARK    8  A    between atoms: O_8  and  C_20 
REMARK    9  A    between atoms: O_9  and  C_22 
REMARK   10  A    between atoms: O_10  and  C_23 
REMARK   11  A    between atoms: O_12  and  C_35 
REMARK   12  A    between atoms: O_14  and  C_42 
REMARK   13  A    between atoms: O_15  and  C_40 
REMARK   14  A    between atoms: C_16  and  C_25 
REMARK   15  A    between atoms: C_33  and  C_37 
ROOT
ATOM      1  O   UNK d   1       9.790  17.714   1.270  0.00  0.00    -0.348 OA
ATOM      2  C   UNK d   1       9.066  18.945   1.162  0.00  0.00     0.180 C 
ATOM      3  C   UNK d   1       9.702  19.989   2.095  0.00  0.00     0.180 C 
ATOM      4  C   UNK d   1       9.752  19.447   3.526  0.00  0.00     0.183 C 
ATOM      5  C   UNK d   1      10.435  18.077   3.578  0.00  0.00     0.205 C 
ATOM      6  C   UNK d   1       9.745  17.134   2.575  0.00  0.00     0.298 C 
ENDROOT
BRANCH   6   7
ATOM      7  O   UNK d   1      10.454  15.888   2.554  0.00  0.00    -0.318 OA
BRANCH   7   8
ATOM      8  C   UNK d   1       9.721  14.741   2.701  0.00  0.00     0.077 A 
ATOM      9  C   UNK d   1       8.862  14.183   1.757  0.00  0.00     0.074 A 
ATOM     10  C   UNK d   1       8.101  13.052   2.073  0.00  0.00     0.089 A 
ATOM     11  O   UNK d   1       7.222  12.670   1.097  0.00  0.00    -0.340 OA
ATOM     12  C   UNK d   1       8.243  12.420   3.309  0.00  0.00     0.076 A 
ATOM     13  C   UNK d   1       6.143  11.822   1.508  0.00  0.00     0.169 C 
ATOM     14  C   UNK d   1       6.586  10.703   2.434  0.00  0.00     0.121 C 
ATOM     15  C   UNK d   1       7.411  11.219   3.577  0.00  0.00     0.167 C 
ATOM     16  O   UNK d   1       7.422  10.624   4.649  0.00  0.00    -0.292 OA
ATOM     17  C   UNK d   1       9.137  12.960   4.242  0.00  0.00     0.085 A 
ATOM     18  C   UNK d   1       9.861  14.117   3.941  0.00  0.00     0.074 A 
BRANCH  13  19
ATOM     19  C   UNK d   1       4.920  12.617   1.962  0.00  0.00    -0.026 A 
ATOM     20  C   UNK d   1       4.172  13.431   1.099  0.00  0.00     0.049 A 
ATOM     21  C   UNK d   1       3.053  14.128   1.567  0.00  0.00     0.099 A 
ATOM     22  C   UNK d   1       2.648  14.044   2.903  0.00  0.00     0.101 A 
ATOM     23  C   UNK d   1       3.389  13.241   3.769  0.00  0.00     0.040 A 
ATOM     24  C   UNK d   1       4.509  12.537   3.303  0.00  0.00     0.012 A 
BRANCH  21  25
ATOM     25  O   UNK d   1       2.333  14.910   0.701  0.00  0.00    -0.358 OA
ATOM     26  H   UNK d   1       1.532  15.225   1.145  0.00  0.00     0.217 HD
ENDBRANCH  21  25
BRANCH  22  27
ATOM     27  O   UNK d   1       1.537  14.766   3.249  0.00  0.00    -0.353 OA
ATOM     28  C   UNK d   1       0.334  14.049   3.479  0.00  0.00     0.210 C 
ENDBRANCH  22  27
ENDBRANCH  13  19
BRANCH  17  29
ATOM     29  O   UNK d   1       9.309  12.382   5.468  0.00  0.00    -0.360 OA
ATOM     30  H   UNK d   1      10.081  11.795   5.461  0.00  0.00     0.217 HD
ENDBRANCH  17  29
ENDBRANCH   7   8
ENDBRANCH   6   7
BRANCH   5  31
ATOM     31  O   UNK d   1      10.347  17.580   4.923  0.00  0.00    -0.388 OA
ATOM     32  H   UNK d   1       9.706  16.844   4.885  0.00  0.00     0.210 HD
ENDBRANCH   5  31
BRANCH   2  33
ATOM     33  C   UNK d   1       9.116  19.428  -0.300  0.00  0.00     0.205 C 
BRANCH  33  34
ATOM     34  O   UNK d   1       7.924  20.121  -0.689  0.00  0.00    -0.356 OA
BRANCH  34  35
ATOM     35  C   UNK d   1       8.168  21.388  -1.312  0.00  0.00     0.291 C 
ATOM     36  O   UNK d   1       8.980  22.191  -0.443  0.00  0.00    -0.351 OA
ATOM     37  C   UNK d   1       8.847  23.608  -0.580  0.00  0.00     0.152 C 
ATOM     38  C   UNK d   1       8.434  24.010  -2.000  0.00  0.00     0.178 C 
ATOM     39  C   UNK d   1      10.179  24.221  -0.161  0.00  0.00     0.042 C 
ATOM     40  C   UNK d   1       7.045  23.428  -2.303  0.00  0.00     0.183 C 
ATOM     41  C   UNK d   1       6.815  22.062  -1.633  0.00  0.00     0.204 C 
BRANCH  38  42
ATOM     42  O   UNK d   1       8.378  25.423  -2.197  0.00  0.00    -0.390 OA
ATOM     43  H   UNK d   1       7.901  25.811  -1.441  0.00  0.00     0.210 HD
ENDBRANCH  38  42
BRANCH  40  44
ATOM     44  O   UNK d   1       6.899  23.303  -3.735  0.00  0.00    -0.390 OA
ATOM     45  H   UNK d   1       6.619  24.188  -4.044  0.00  0.00     0.210 HD
ENDBRANCH  40  44
BRANCH  41  46
ATOM     46  O   UNK d   1       5.970  21.255  -2.468  0.00  0.00    -0.388 OA
ATOM     47  H   UNK d   1       6.154  20.329  -2.204  0.00  0.00     0.210 HD
ENDBRANCH  41  46
ENDBRANCH  34  35
ENDBRANCH  33  34
ENDBRANCH   2  33
BRANCH   4  48
ATOM     48  O   UNK d   1      10.465  20.360   4.378  0.00  0.00    -0.390 OA
ATOM     49  H   UNK d   1      10.629  21.159   3.844  0.00  0.00     0.210 HD
ENDBRANCH   4  48
BRANCH   3  50
ATOM     50  O   UNK d   1       8.962  21.211   2.086  0.00  0.00    -0.390 OA
ATOM     51  H   UNK d   1       9.086  21.613   1.208  0.00  0.00     0.210 HD
ENDBRANCH   3  50
TORSDOF 15
ENDMDL
MODEL 4
REMARK VINA RESULT:      -8.2      1.412      2.055
REMARK  15 active torsions:
REMARK  status: ('A' for Active; 'I' for Inactive)
REMARK    1  A    between atoms: O_2  and  C_21 
REMARK    2  A    between atoms: O_2  and  C_25 
REMARK    3  A    between atoms: O_4  and  C_17 
REMARK    4  A    between atoms: O_5  and  C_24 
REMARK    5  A    between atoms: O_5  and  C_28 
REMARK    6  A    between atoms: O_6  and  C_18 
REMARK    7  A    between atoms: O_7  and  C_19 
REMARK    8  A    between atoms: O_8  and  C_20 
REMARK    9  A    between atoms: O_9  and  C_22 
REMARK   10  A    between atoms: O_10  and  C_23 
REMARK   11  A    between atoms: O_12  and  C_35 
REMARK   12  A    between atoms: O_14  and  C_42 
REMARK   13  A    between atoms: O_15  and  C_40 
REMARK   14  A    between atoms: C_16  and  C_25 
REMARK   15  A    between atoms: C_33  and  C_37 
ROOT
ATOM      1  O   UNK d   1       8.940  16.832   2.763  0.00  0.00    -0.348 OA
ATOM      2  C   UNK d   1       9.516  17.361   3.962  0.00  0.00     0.180 C 
ATOM      3  C   UNK d   1      10.974  16.883   4.076  0.00  0.00     0.180 C 
ATOM      4  C   UNK d   1      11.027  15.354   4.009  0.00  0.00     0.183 C 
ATOM      5  C   UNK d   1      10.301  14.826   2.769  0.00  0.00     0.205 C 
ATOM      6  C   UNK d   1       8.874  15.405   2.739  0.00  0.00     0.298 C 
ENDROOT
BRANCH   6   7
ATOM      7  O   UNK d   1       8.235  14.990   1.524  0.00  0.00    -0.318 OA
BRANCH   7   8
ATOM      8  C   UNK d   1       6.928  14.592   1.600  0.00  0.00     0.077 A 
ATOM      9  C   UNK d   1       6.243  14.225   2.756  0.00  0.00     0.074 A 
ATOM     10  C   UNK d   1       4.929  13.747   2.680  0.00  0.00     0.089 A 
ATOM     11  O   UNK d   1       4.411  13.323   3.872  0.00  0.00    -0.340 OA
ATOM     12  C   UNK d   1       4.259  13.699   1.457  0.00  0.00     0.076 A 
ATOM     13  C   UNK d   1       3.279  12.449   3.800  0.00  0.00     0.169 C 
ATOM     14  C   UNK d   1       2.244  12.899   2.783  0.00  0.00     0.121 C 
ATOM     15  C   UNK d   1       2.864  13.189   1.447  0.00  0.00     0.167 C 
ATOM     16  O   UNK d   1       2.207  13.057   0.420  0.00  0.00    -0.292 OA
ATOM     17  C   UNK d   1       4.936  14.105   0.301  0.00  0.00     0.085 A 
ATOM     18  C   UNK d   1       6.264  14.538   0.374  0.00  0.00     0.074 A 
BRANCH  13  19
ATOM     19  C   UNK d   1       3.684  10.978   3.729  0.00  0.00    -0.026 A 
ATOM     20  C   UNK d   1       4.534  10.464   2.738  0.00  0.00     0.049 A 
ATOM     21  C   UNK d   1       4.882   9.109   2.728  0.00  0.00     0.099 A 
ATOM     22  C   UNK d   1       4.392   8.224   3.695  0.00  0.00     0.101 A 
ATOM     23  C   UNK d   1       3.542   8.725   4.680  0.00  0.00     0.040 A 
ATOM     24  C   UNK d   1       3.194  10.084   4.696  0.00  0.00     0.012 A 
BRANCH  21  25
ATOM     25  O   UNK d   1       5.722   8.634   1.755  0.00  0.00    -0.358 OA
ATOM     26  H   UNK d   1       5.545   9.101   0.925  0.00  0.00     0.217 HD
ENDBRANCH  21  25
BRANCH  22  27
ATOM     27  O   UNK d   1       4.801   6.922   3.589  0.00  0.00    -0.353 OA
ATOM     28  C   UNK d   1       4.400   6.023   4.612  0.00  0.00     0.210 C 
ENDBRANCH  22  27
ENDBRANCH  13  19
BRANCH  17  29
ATOM     29  O   UNK d   1       4.327  14.072  -0.921  0.00  0.00    -0.360 OA
ATOM     30  H   UNK d   1       4.931  13.718  -1.593  0.00  0.00     0.217 HD
ENDBRANCH  17  29
ENDBRANCH   7   8
ENDBRANCH   6   7
BRANCH   5  31
ATOM     31  O   UNK d   1      10.292  13.391   2.828  0.00  0.00    -0.388 OA
ATOM     32  H   UNK d   1      10.239  13.172   3.778  0.00  0.00     0.210 HD
ENDBRANCH   5  31
BRANCH   2  33
ATOM     33  C   UNK d   1       9.457  18.900   3.909  0.00  0.00     0.205 C 
BRANCH  33  34
ATOM     34  O   UNK d   1      10.510  19.462   3.116  0.00  0.00    -0.356 OA
BRANCH  34  35
ATOM     35  C   UNK d   1      10.087  20.540   2.272  0.00  0.00     0.291 C 
ATOM     36  O   UNK d   1       9.199  20.028   1.267  0.00  0.00    -0.351 OA
ATOM     37  C   UNK d   1       9.142  20.758   0.039  0.00  0.00     0.152 C 
ATOM     38  C   UNK d   1       9.462  22.243   0.241  0.00  0.00     0.178 C 
ATOM     39  C   UNK d   1       7.752  20.532  -0.547  0.00  0.00     0.042 C 
ATOM     40  C   UNK d   1      10.908  22.381   0.744  0.00  0.00     0.183 C 
ATOM     41  C   UNK d   1      11.331  21.219   1.659  0.00  0.00     0.204 C 
BRANCH  38  42
ATOM     42  O   UNK d   1       9.328  23.020  -0.950  0.00  0.00    -0.390 OA
ATOM     43  H   UNK d   1      10.220  23.283  -1.236  0.00  0.00     0.210 HD
ENDBRANCH  38  42
BRANCH  40  44
ATOM     44  O   UNK d   1      11.032  23.635   1.451  0.00  0.00    -0.390 OA
ATOM     45  H   UNK d   1      11.915  23.981   1.209  0.00  0.00     0.210 HD
ENDBRANCH  40  44
BRANCH  41  46
ATOM     46  O   UNK d   1      12.253  21.700   2.648  0.00  0.00    -0.388 OA
ATOM     47  H   UNK d   1      12.568  22.565   2.310  0.00  0.00     0.210 HD
ENDBRANCH  41  46
ENDBRANCH  34  35
ENDBRANCH  33  34
ENDBRANCH   2  33
BRANCH   4  48
ATOM     48  O   UNK d   1      12.393  14.906   3.980  0.00  0.00    -0.390 OA
ATOM     49  H   UNK d   1      12.383  14.028   3.558  0.00  0.00     0.210 HD
ENDBRANCH   4  48
BRANCH   3  50
ATOM     50  O   UNK d   1      11.567  17.316   5.301  0.00  0.00    -0.390 OA
ATOM     51  H   UNK d   1      11.848  18.240   5.171  0.00  0.00     0.210 HD
ENDBRANCH   3  50
TORSDOF 15
ENDMDL
MODEL 5
REMARK VINA RESULT:      -8.1      4.764     10.010
REMARK  15 active torsions:
REMARK  status: ('A' for Active; 'I' for Inactive)
REMARK    1  A    between atoms: O_2  and  C_21 
REMARK    2  A    between atoms: O_2  and  C_25 
REMARK    3  A    between atoms: O_4  and  C_17 
REMARK    4  A    between atoms: O_5  and  C_24 
REMARK    5  A    between atoms: O_5  and  C_28 
REMARK    6  A    between atoms: O_6  and  C_18 
REMARK    7  A    between atoms: O_7  and  C_19 
REMARK    8  A    between atoms: O_8  and  C_20 
REMARK    9  A    between atoms: O_9  and  C_22 
REMARK   10  A    between atoms: O_10  and  C_23 
REMARK   11  A    between atoms: O_12  and  C_35 
REMARK   12  A    between atoms: O_14  and  C_42 
REMARK   13  A    between atoms: O_15  and  C_40 
REMARK   14  A    between atoms: C_16  and  C_25 
REMARK   15  A    between atoms: C_33  and  C_37 
ROOT
ATOM      1  O   UNK d   1       9.534  17.294   2.787  0.00  0.00    -0.348 OA
ATOM      2  C   UNK d   1       8.760  16.784   3.878  0.00  0.00     0.180 C 
ATOM      3  C   UNK d   1       9.062  15.286   4.055  0.00  0.00     0.180 C 
ATOM      4  C   UNK d   1       8.806  14.544   2.741  0.00  0.00     0.183 C 
ATOM      5  C   UNK d   1       9.565  15.193   1.580  0.00  0.00     0.205 C 
ATOM      6  C   UNK d   1       9.219  16.693   1.530  0.00  0.00     0.298 C 
ENDROOT
BRANCH   6   7
ATOM      7  O   UNK d   1      10.011  17.313   0.508  0.00  0.00    -0.318 OA
BRANCH   7   8
ATOM      8  C   UNK d   1       9.804  18.645   0.268  0.00  0.00     0.077 A 
ATOM      9  C   UNK d   1      10.694  19.681   0.541  0.00  0.00     0.074 A 
ATOM     10  C   UNK d   1      10.317  21.013   0.330  0.00  0.00     0.089 A 
ATOM     11  O   UNK d   1      11.242  21.934   0.737  0.00  0.00    -0.340 OA
ATOM     12  C   UNK d   1       9.074  21.321  -0.226  0.00  0.00     0.076 A 
ATOM     13  C   UNK d   1      10.762  23.267   0.949  0.00  0.00     0.169 C 
ATOM     14  C   UNK d   1       9.832  23.746  -0.151  0.00  0.00     0.121 C 
ATOM     15  C   UNK d   1       8.741  22.754  -0.431  0.00  0.00     0.167 C 
ATOM     16  O   UNK d   1       7.657  23.133  -0.862  0.00  0.00    -0.292 OA
ATOM     17  C   UNK d   1       8.197  20.276  -0.536  0.00  0.00     0.085 A 
ATOM     18  C   UNK d   1       8.558  18.949  -0.281  0.00  0.00     0.074 A 
BRANCH  13  19
ATOM     19  C   UNK d   1      10.270  23.486   2.379  0.00  0.00    -0.026 A 
ATOM     20  C   UNK d   1       9.118  24.225   2.688  0.00  0.00     0.049 A 
ATOM     21  C   UNK d   1       8.706  24.384   4.015  0.00  0.00     0.099 A 
ATOM     22  C   UNK d   1       9.428  23.823   5.074  0.00  0.00     0.101 A 
ATOM     23  C   UNK d   1      10.577  23.091   4.777  0.00  0.00     0.040 A 
ATOM     24  C   UNK d   1      10.991  22.926   3.447  0.00  0.00     0.012 A 
BRANCH  21  25
ATOM     25  O   UNK d   1       7.571  25.103   4.290  0.00  0.00    -0.358 OA
ATOM     26  H   UNK d   1       7.068  24.652   4.983  0.00  0.00     0.217 HD
ENDBRANCH  21  25
BRANCH  22  27
ATOM     27  O   UNK d   1       8.931  24.041   6.331  0.00  0.00    -0.353 OA
ATOM     28  C   UNK d   1       8.159  23.005   6.920  0.00  0.00     0.210 C 
ENDBRANCH  22  27
ENDBRANCH  13  19
BRANCH  17  29
ATOM     29  O   UNK d   1       6.968  20.525  -1.076  0.00  0.00    -0.360 OA
ATOM     30  H   UNK d   1       6.722  21.455  -0.947  0.00  0.00     0.217 HD
ENDBRANCH  17  29
ENDBRANCH   7   8
ENDBRANCH   6   7
BRANCH   5  31
ATOM     31  O   UNK d   1       9.194  14.520   0.366  0.00  0.00    -0.388 OA
ATOM     32  H   UNK d   1       8.254  14.746   0.223  0.00  0.00     0.210 HD
ENDBRANCH   5  31
BRANCH   2  33
ATOM     33  C   UNK d   1       9.124  17.562   5.157  0.00  0.00     0.205 C 
BRANCH  33  34
ATOM     34  O   UNK d   1      10.246  16.993   5.844  0.00  0.00    -0.356 OA
BRANCH  34  35
ATOM     35  C   UNK d   1      11.319  17.916   6.066  0.00  0.00     0.291 C 
ATOM     36  O   UNK d   1      10.820  19.053   6.787  0.00  0.00    -0.351 OA
ATOM     37  C   UNK d   1      11.522  20.283   6.597  0.00  0.00     0.152 C 
ATOM     38  C   UNK d   1      12.997  20.053   6.251  0.00  0.00     0.178 C 
ATOM     39  C   UNK d   1      11.338  21.100   7.872  0.00  0.00     0.042 C 
ATOM     40  C   UNK d   1      13.089  19.307   4.911  0.00  0.00     0.183 C 
ATOM     41  C   UNK d   1      11.933  18.313   4.705  0.00  0.00     0.204 C 
BRANCH  38  42
ATOM     42  O   UNK d   1      13.750  21.262   6.142  0.00  0.00    -0.390 OA
ATOM     43  H   UNK d   1      13.541  21.666   5.281  0.00  0.00     0.210 HD
ENDBRANCH  38  42
BRANCH  40  44
ATOM     44  O   UNK d   1      14.353  18.609   4.857  0.00  0.00    -0.390 OA
ATOM     45  H   UNK d   1      15.034  19.311   4.837  0.00  0.00     0.210 HD
ENDBRANCH  40  44
BRANCH  41  46
ATOM     46  O   UNK d   1      12.400  17.185   3.949  0.00  0.00    -0.388 OA
ATOM     47  H   UNK d   1      12.293  16.413   4.544  0.00  0.00     0.210 HD
ENDBRANCH  41  46
ENDBRANCH  34  35
ENDBRANCH  33  34
ENDBRANCH   2  33
BRANCH   4  48
ATOM     48  O   UNK d   1       9.214  13.170   2.860  0.00  0.00    -0.390 OA
ATOM     49  H   UNK d   1       9.816  13.130   3.626  0.00  0.00     0.210 HD
ENDBRANCH   4  48
BRANCH   3  50
ATOM     50  O   UNK d   1       8.249  14.711   5.080  0.00  0.00    -0.390 OA
ATOM     51  H   UNK d   1       7.539  15.350   5.273  0.00  0.00     0.210 HD
ENDBRANCH   3  50
TORSDOF 15
ENDMDL
MODEL 6
REMARK VINA RESULT:      -8.1     17.800     20.394
REMARK  15 active torsions:
REMARK  status: ('A' for Active; 'I' for Inactive)
REMARK    1  A    between atoms: O_2  and  C_21 
REMARK    2  A    between atoms: O_2  and  C_25 
REMARK    3  A    between atoms: O_4  and  C_17 
REMARK    4  A    between atoms: O_5  and  C_24 
REMARK    5  A    between atoms: O_5  and  C_28 
REMARK    6  A    between atoms: O_6  and  C_18 
REMARK    7  A    between atoms: O_7  and  C_19 
REMARK    8  A    between atoms: O_8  and  C_20 
REMARK    9  A    between atoms: O_9  and  C_22 
REMARK   10  A    between atoms: O_10  and  C_23 
REMARK   11  A    between atoms: O_12  and  C_35 
REMARK   12  A    between atoms: O_14  and  C_42 
REMARK   13  A    between atoms: O_15  and  C_40 
REMARK   14  A    between atoms: C_16  and  C_25 
REMARK   15  A    between atoms: C_33  and  C_37 
ROOT
ATOM      1  O   UNK d   1      19.456   0.334  -5.564  0.00  0.00    -0.348 OA
ATOM      2  C   UNK d   1      19.433   1.577  -4.854  0.00  0.00     0.180 C 
ATOM      3  C   UNK d   1      20.401   1.496  -3.662  0.00  0.00     0.180 C 
ATOM      4  C   UNK d   1      20.043   0.297  -2.781  0.00  0.00     0.183 C 
ATOM      5  C   UNK d   1      19.969  -0.994  -3.602  0.00  0.00     0.205 C 
ATOM      6  C   UNK d   1      19.010  -0.779  -4.788  0.00  0.00     0.298 C 
ENDROOT
BRANCH   6   7
ATOM      7  O   UNK d   1      19.025  -1.954  -5.610  0.00  0.00    -0.318 OA
BRANCH   7   8
ATOM      8  C   UNK d   1      17.825  -2.555  -5.876  0.00  0.00     0.077 A 
ATOM      9  C   UNK d   1      17.584  -3.525  -6.846  0.00  0.00     0.074 A 
ATOM     10  C   UNK d   1      16.284  -3.991  -7.075  0.00  0.00     0.089 A 
ATOM     11  O   UNK d   1      16.171  -4.861  -8.124  0.00  0.00    -0.340 OA
ATOM     12  C   UNK d   1      15.220  -3.549  -6.287  0.00  0.00     0.076 A 
ATOM     13  C   UNK d   1      14.859  -5.031  -8.672  0.00  0.00     0.169 C 
ATOM     14  C   UNK d   1      13.784  -5.178  -7.608  0.00  0.00     0.121 C 
ATOM     15  C   UNK d   1      13.867  -4.090  -6.578  0.00  0.00     0.167 C 
ATOM     16  O   UNK d   1      12.860  -3.726  -5.981  0.00  0.00    -0.292 OA
ATOM     17  C   UNK d   1      15.471  -2.603  -5.287  0.00  0.00     0.085 A 
ATOM     18  C   UNK d   1      16.762  -2.104  -5.091  0.00  0.00     0.074 A 
BRANCH  13  19
ATOM     19  C   UNK d   1      14.560  -4.028  -9.785  0.00  0.00    -0.026 A 
ATOM     20  C   UNK d   1      13.286  -3.868 -10.350  0.00  0.00     0.049 A 
ATOM     21  C   UNK d   1      13.066  -2.924 -11.360  0.00  0.00     0.099 A 
ATOM     22  C   UNK d   1      14.104  -2.120 -11.844  0.00  0.00     0.101 A 
ATOM     23  C   UNK d   1      15.375  -2.277 -11.292  0.00  0.00     0.040 A 
ATOM     24  C   UNK d   1      15.598  -3.218 -10.276  0.00  0.00     0.012 A 
BRANCH  21  25
ATOM     25  O   UNK d   1      11.809  -2.780 -11.888  0.00  0.00    -0.358 OA
ATOM     26  H   UNK d   1      11.285  -2.205 -11.312  0.00  0.00     0.217 HD
ENDBRANCH  21  25
BRANCH  22  27
ATOM     27  O   UNK d   1      13.773  -1.231 -12.831  0.00  0.00    -0.353 OA
ATOM     28  C   UNK d   1      14.717  -1.025 -13.871  0.00  0.00     0.210 C 
ENDBRANCH  22  27
ENDBRANCH  13  19
BRANCH  17  29
ATOM     29  O   UNK d   1      14.463  -2.134  -4.493  0.00  0.00    -0.360 OA
ATOM     30  H   UNK d   1      14.787  -1.425  -3.915  0.00  0.00     0.217 HD
ENDBRANCH  17  29
ENDBRANCH   7   8
ENDBRANCH   6   7
BRANCH   5  31
ATOM     31  O   UNK d   1      19.522  -2.052  -2.741  0.00  0.00    -0.388 OA
ATOM     32  H   UNK d   1      20.316  -2.338  -2.249  0.00  0.00     0.210 HD
ENDBRANCH   5  31
BRANCH   2  33
ATOM     33  C   UNK d   1      19.851   2.709  -5.812  0.00  0.00     0.205 C 
BRANCH  33  34
ATOM     34  O   UNK d   1      18.773   3.606  -6.105  0.00  0.00    -0.356 OA
BRANCH  34  35
ATOM     35  C   UNK d   1      19.010   4.955  -5.683  0.00  0.00     0.291 C 
ATOM     36  O   UNK d   1      20.414   5.238  -5.781  0.00  0.00    -0.351 OA
ATOM     37  C   UNK d   1      20.922   6.243  -4.900  0.00  0.00     0.152 C 
ATOM     38  C   UNK d   1      19.851   7.276  -4.533  0.00  0.00     0.178 C 
ATOM     39  C   UNK d   1      22.128   6.870  -5.591  0.00  0.00     0.042 C 
ATOM     40  C   UNK d   1      18.721   6.575  -3.762  0.00  0.00     0.183 C 
ATOM     41  C   UNK d   1      18.478   5.135  -4.244  0.00  0.00     0.204 C 
BRANCH  38  42
ATOM     42  O   UNK d   1      20.346   8.345  -3.725  0.00  0.00    -0.390 OA
ATOM     43  H   UNK d   1      19.940   9.171  -4.043  0.00  0.00     0.210 HD
ENDBRANCH  38  42
BRANCH  40  44
ATOM     44  O   UNK d   1      17.512   7.353  -3.908  0.00  0.00    -0.390 OA
ATOM     45  H   UNK d   1      17.805   8.286  -3.921  0.00  0.00     0.210 HD
ENDBRANCH  40  44
BRANCH  41  46
ATOM     46  O   UNK d   1      17.084   4.815  -4.117  0.00  0.00    -0.388 OA
ATOM     47  H   UNK d   1      17.053   4.018  -3.547  0.00  0.00     0.210 HD
ENDBRANCH  41  46
ENDBRANCH  34  35
ENDBRANCH  33  34
ENDBRANCH   2  33
BRANCH   4  48
ATOM     48  O   UNK d   1      21.023   0.136  -1.741  0.00  0.00    -0.390 OA
ATOM     49  H   UNK d   1      21.291   1.035  -1.477  0.00  0.00     0.210 HD
ENDBRANCH   4  48
BRANCH   3  50
ATOM     50  O   UNK d   1      20.350   2.686  -2.871  0.00  0.00    -0.390 OA
ATOM     51  H   UNK d   1      19.606   2.583  -2.250  0.00  0.00     0.210 HD
ENDBRANCH   3  50
TORSDOF 15
ENDMDL
MODEL 7
REMARK VINA RESULT:      -8.0      2.860      9.726
REMARK  15 active torsions:
REMARK  status: ('A' for Active; 'I' for Inactive)
REMARK    1  A    between atoms: O_2  and  C_21 
REMARK    2  A    between atoms: O_2  and  C_25 
REMARK    3  A    between atoms: O_4  and  C_17 
REMARK    4  A    between atoms: O_5  and  C_24 
REMARK    5  A    between atoms: O_5  and  C_28 
REMARK    6  A    between atoms: O_6  and  C_18 
REMARK    7  A    between atoms: O_7  and  C_19 
REMARK    8  A    between atoms: O_8  and  C_20 
REMARK    9  A    between atoms: O_9  and  C_22 
REMARK   10  A    between atoms: O_10  and  C_23 
REMARK   11  A    between atoms: O_12  and  C_35 
REMARK   12  A    between atoms: O_14  and  C_42 
REMARK   13  A    between atoms: O_15  and  C_40 
REMARK   14  A    between atoms: C_16  and  C_25 
REMARK   15  A    between atoms: C_33  and  C_37 
ROOT
ATOM      1  O   UNK d   1       8.715  16.145   4.828  0.00  0.00    -0.348 OA
ATOM      2  C   UNK d   1       8.731  14.733   4.591  0.00  0.00     0.180 C 
ATOM      3  C   UNK d   1      10.065  14.151   5.088  0.00  0.00     0.180 C 
ATOM      4  C   UNK d   1      11.233  14.883   4.421  0.00  0.00     0.183 C 
ATOM      5  C   UNK d   1      11.116  16.399   4.604  0.00  0.00     0.205 C 
ATOM      6  C   UNK d   1       9.728  16.857   4.116  0.00  0.00     0.298 C 
ENDROOT
BRANCH   6   7
ATOM      7  O   UNK d   1       9.586  18.259   4.386  0.00  0.00    -0.318 OA
BRANCH   7   8
ATOM      8  C   UNK d   1       9.652  19.117   3.322  0.00  0.00     0.077 A 
ATOM      9  C   UNK d   1       9.551  20.505   3.374  0.00  0.00     0.074 A 
ATOM     10  C   UNK d   1       9.543  21.260   2.194  0.00  0.00     0.089 A 
ATOM     11  O   UNK d   1       9.333  22.598   2.380  0.00  0.00    -0.340 OA
ATOM     12  C   UNK d   1       9.709  20.643   0.953  0.00  0.00     0.076 A 
ATOM     13  C   UNK d   1       8.890  23.338   1.237  0.00  0.00     0.169 C 
ATOM     14  C   UNK d   1       9.651  22.986  -0.030  0.00  0.00     0.121 C 
ATOM     15  C   UNK d   1       9.699  21.503  -0.258  0.00  0.00     0.167 C 
ATOM     16  O   UNK d   1       9.783  21.055  -1.396  0.00  0.00    -0.292 OA
ATOM     17  C   UNK d   1       9.849  19.251   0.906  0.00  0.00     0.085 A 
ATOM     18  C   UNK d   1       9.811  18.496   2.082  0.00  0.00     0.074 A 
BRANCH  13  19
ATOM     19  C   UNK d   1       7.368  23.362   1.113  0.00  0.00    -0.026 A 
ATOM     20  C   UNK d   1       6.690  23.040  -0.072  0.00  0.00     0.049 A 
ATOM     21  C   UNK d   1       5.292  23.067  -0.125  0.00  0.00     0.099 A 
ATOM     22  C   UNK d   1       4.527  23.421   0.992  0.00  0.00     0.101 A 
ATOM     23  C   UNK d   1       5.193  23.748   2.173  0.00  0.00     0.040 A 
ATOM     24  C   UNK d   1       6.594  23.718   2.231  0.00  0.00     0.012 A 
BRANCH  21  25
ATOM     25  O   UNK d   1       4.653  22.738  -1.293  0.00  0.00    -0.358 OA
ATOM     26  H   UNK d   1       3.699  22.860  -1.180  0.00  0.00     0.217 HD
ENDBRANCH  21  25
BRANCH  22  27
ATOM     27  O   UNK d   1       3.168  23.411   0.826  0.00  0.00    -0.353 OA
ATOM     28  C   UNK d   1       2.397  22.688   1.774  0.00  0.00     0.210 C 
ENDBRANCH  22  27
ENDBRANCH  13  19
BRANCH  17  29
ATOM     29  O   UNK d   1      10.010  18.600  -0.283  0.00  0.00    -0.360 OA
ATOM     30  H   UNK d   1      10.314  19.215  -0.969  0.00  0.00     0.217 HD
ENDBRANCH  17  29
ENDBRANCH   7   8
ENDBRANCH   6   7
BRANCH   5  31
ATOM     31  O   UNK d   1      12.174  17.026   3.863  0.00  0.00    -0.388 OA
ATOM     32  H   UNK d   1      11.729  17.546   3.166  0.00  0.00     0.210 HD
ENDBRANCH   5  31
BRANCH   2  33
ATOM     33  C   UNK d   1       7.550  14.086   5.340  0.00  0.00     0.205 C 
BRANCH  33  34
ATOM     34  O   UNK d   1       6.892  13.080   4.561  0.00  0.00    -0.356 OA
BRANCH  34  35
ATOM     35  C   UNK d   1       6.558  13.501   3.233  0.00  0.00     0.291 C 
ATOM     36  O   UNK d   1       5.130  13.581   3.110  0.00  0.00    -0.351 OA
ATOM     37  C   UNK d   1       4.595  13.401   1.797  0.00  0.00     0.152 C 
ATOM     38  C   UNK d   1       5.586  13.834   0.711  0.00  0.00     0.178 C 
ATOM     39  C   UNK d   1       3.286  14.182   1.741  0.00  0.00     0.042 C 
ATOM     40  C   UNK d   1       6.832  12.937   0.781  0.00  0.00     0.183 C 
ATOM     41  C   UNK d   1       7.176  12.512   2.219  0.00  0.00     0.204 C 
BRANCH  38  42
ATOM     42  O   UNK d   1       5.051  13.752  -0.611  0.00  0.00    -0.390 OA
ATOM     43  H   UNK d   1       4.222  13.242  -0.566  0.00  0.00     0.210 HD
ENDBRANCH  38  42
BRANCH  40  44
ATOM     44  O   UNK d   1       7.946  13.650   0.200  0.00  0.00    -0.390 OA
ATOM     45  H   UNK d   1       8.642  13.645   0.888  0.00  0.00     0.210 HD
ENDBRANCH  40  44
BRANCH  41  46
ATOM     46  O   UNK d   1       8.599  12.385   2.354  0.00  0.00    -0.388 OA
ATOM     47  H   UNK d   1       8.885  11.854   1.581  0.00  0.00     0.210 HD
ENDBRANCH  41  46
ENDBRANCH  34  35
ENDBRANCH  33  34
ENDBRANCH   2  33
BRANCH   4  48
ATOM     48  O   UNK d   1      12.481  14.438   4.979  0.00  0.00    -0.390 OA
ATOM     49  H   UNK d   1      12.289  14.169   5.896  0.00  0.00     0.210 HD
ENDBRANCH   4  48
BRANCH   3  50
ATOM     50  O   UNK d   1      10.163  12.756   4.795  0.00  0.00    -0.390 OA
ATOM     51  H   UNK d   1       9.320  12.491   4.384  0.00  0.00     0.210 HD
ENDBRANCH   3  50
TORSDOF 15
ENDMDL
MODEL 8
REMARK VINA RESULT:      -7.9     29.360     33.752
REMARK  15 active torsions:
REMARK  status: ('A' for Active; 'I' for Inactive)
REMARK    1  A    between atoms: O_2  and  C_21 
REMARK    2  A    between atoms: O_2  and  C_25 
REMARK    3  A    between atoms: O_4  and  C_17 
REMARK    4  A    between atoms: O_5  and  C_24 
REMARK    5  A    between atoms: O_5  and  C_28 
REMARK    6  A    between atoms: O_6  and  C_18 
REMARK    7  A    between atoms: O_7  and  C_19 
REMARK    8  A    between atoms: O_8  and  C_20 
REMARK    9  A    between atoms: O_9  and  C_22 
REMARK   10  A    between atoms: O_10  and  C_23 
REMARK   11  A    between atoms: O_12  and  C_35 
REMARK   12  A    between atoms: O_14  and  C_42 
REMARK   13  A    between atoms: O_15  and  C_40 
REMARK   14  A    between atoms: C_16  and  C_25 
REMARK   15  A    between atoms: C_33  and  C_37 
ROOT
ATOM      1  O   UNK d   1      24.692  -3.227  18.653  0.00  0.00    -0.348 OA
ATOM      2  C   UNK d   1      24.673  -1.799  18.750  0.00  0.00     0.180 C 
ATOM      3  C   UNK d   1      24.027  -1.215  17.483  0.00  0.00     0.180 C 
ATOM      4  C   UNK d   1      24.764  -1.722  16.241  0.00  0.00     0.183 C 
ATOM      5  C   UNK d   1      24.858  -3.250  16.235  0.00  0.00     0.205 C 
ATOM      6  C   UNK d   1      25.477  -3.719  17.565  0.00  0.00     0.298 C 
ENDROOT
BRANCH   6   7
ATOM      7  O   UNK d   1      25.466  -5.153  17.597  0.00  0.00    -0.318 OA
BRANCH   7   8
ATOM      8  C   UNK d   1      26.239  -5.770  18.542  0.00  0.00     0.077 A 
ATOM      9  C   UNK d   1      25.786  -6.591  19.572  0.00  0.00     0.074 A 
ATOM     10  C   UNK d   1      26.679  -7.086  20.530  0.00  0.00     0.089 A 
ATOM     11  O   UNK d   1      26.090  -7.789  21.544  0.00  0.00    -0.340 OA
ATOM     12  C   UNK d   1      28.047  -6.828  20.428  0.00  0.00     0.076 A 
ATOM     13  C   UNK d   1      26.858  -7.943  22.742  0.00  0.00     0.169 C 
ATOM     14  C   UNK d   1      28.308  -8.310  22.476  0.00  0.00     0.121 C 
ATOM     15  C   UNK d   1      28.940  -7.390  21.473  0.00  0.00     0.167 C 
ATOM     16  O   UNK d   1      30.148  -7.178  21.504  0.00  0.00    -0.292 OA
ATOM     17  C   UNK d   1      28.506  -6.035  19.369  0.00  0.00     0.085 A 
ATOM     18  C   UNK d   1      27.606  -5.504  18.441  0.00  0.00     0.074 A 
BRANCH  13  19
ATOM     19  C   UNK d   1      26.632  -6.799  23.729  0.00  0.00    -0.026 A 
ATOM     20  C   UNK d   1      25.363  -6.432  24.199  0.00  0.00     0.049 A 
ATOM     21  C   UNK d   1      25.215  -5.382  25.112  0.00  0.00     0.099 A 
ATOM     22  C   UNK d   1      26.320  -4.661  25.578  0.00  0.00     0.101 A 
ATOM     23  C   UNK d   1      27.585  -5.015  25.112  0.00  0.00     0.040 A 
ATOM     24  C   UNK d   1      27.737  -6.070  24.200  0.00  0.00     0.012 A 
BRANCH  21  25
ATOM     25  O   UNK d   1      23.964  -5.050  25.563  0.00  0.00    -0.358 OA
ATOM     26  H   UNK d   1      23.576  -5.812  26.019  0.00  0.00     0.217 HD
ENDBRANCH  21  25
BRANCH  22  27
ATOM     27  O   UNK d   1      26.057  -3.657  26.470  0.00  0.00    -0.353 OA
ATOM     28  C   UNK d   1      26.891  -3.562  27.616  0.00  0.00     0.210 C 
ENDBRANCH  22  27
ENDBRANCH  13  19
BRANCH  17  29
ATOM     29  O   UNK d   1      29.834  -5.750  19.228  0.00  0.00    -0.360 OA
ATOM     30  H   UNK d   1      30.082  -4.998  19.790  0.00  0.00     0.217 HD
ENDBRANCH  17  29
ENDBRANCH   7   8
ENDBRANCH   6   7
BRANCH   5  31
ATOM     31  O   UNK d   1      25.654  -3.649  15.108  0.00  0.00    -0.388 OA
ATOM     32  H   UNK d   1      25.426  -4.586  14.949  0.00  0.00     0.210 HD
ENDBRANCH   5  31
BRANCH   2  33
ATOM     33  C   UNK d   1      23.871  -1.392  20.001  0.00  0.00     0.205 C 
BRANCH  33  34
ATOM     34  O   UNK d   1      24.715  -1.070  21.112  0.00  0.00    -0.356 OA
BRANCH  34  35
ATOM     35  C   UNK d   1      24.003  -0.851  22.337  0.00  0.00     0.291 C 
ATOM     36  O   UNK d   1      24.205   0.505  22.762  0.00  0.00    -0.351 OA
ATOM     37  C   UNK d   1      24.100   0.751  24.166  0.00  0.00     0.152 C 
ATOM     38  C   UNK d   1      23.158  -0.244  24.853  0.00  0.00     0.178 C 
ATOM     39  C   UNK d   1      23.643   2.198  24.329  0.00  0.00     0.042 C 
ATOM     40  C   UNK d   1      23.740  -1.660  24.719  0.00  0.00     0.183 C 
ATOM     41  C   UNK d   1      24.487  -1.872  23.391  0.00  0.00     0.204 C 
BRANCH  38  42
ATOM     42  O   UNK d   1      22.960   0.027  26.242  0.00  0.00    -0.390 OA
ATOM     43  H   UNK d   1      22.002   0.003  26.416  0.00  0.00     0.210 HD
ENDBRANCH  38  42
BRANCH  40  44
ATOM     44  O   UNK d   1      22.662  -2.615  24.834  0.00  0.00    -0.390 OA
ATOM     45  H   UNK d   1      22.217  -2.402  25.679  0.00  0.00     0.210 HD
ENDBRANCH  40  44
BRANCH  41  46
ATOM     46  O   UNK d   1      24.333  -3.234  22.966  0.00  0.00    -0.388 OA
ATOM     47  H   UNK d   1      24.314  -3.199  21.987  0.00  0.00     0.210 HD
ENDBRANCH  41  46
ENDBRANCH  34  35
ENDBRANCH  33  34
ENDBRANCH   2  33
BRANCH   4  48
ATOM     48  O   UNK d   1      24.084  -1.288  15.049  0.00  0.00    -0.390 OA
ATOM     49  H   UNK d   1      24.746  -1.314  14.334  0.00  0.00     0.210 HD
ENDBRANCH   4  48
BRANCH   3  50
ATOM     50  O   UNK d   1      24.062   0.214  17.494  0.00  0.00    -0.390 OA
ATOM     51  H   UNK d   1      23.960   0.509  16.571  0.00  0.00     0.210 HD
ENDBRANCH   3  50
TORSDOF 15
ENDMDL
MODEL 9
REMARK VINA RESULT:      -7.7      4.646     10.145
REMARK  15 active torsions:
REMARK  status: ('A' for Active; 'I' for Inactive)
REMARK    1  A    between atoms: O_2  and  C_21 
REMARK    2  A    between atoms: O_2  and  C_25 
REMARK    3  A    between atoms: O_4  and  C_17 
REMARK    4  A    between atoms: O_5  and  C_24 
REMARK    5  A    between atoms: O_5  and  C_28 
REMARK    6  A    between atoms: O_6  and  C_18 
REMARK    7  A    between atoms: O_7  and  C_19 
REMARK    8  A    between atoms: O_8  and  C_20 
REMARK    9  A    between atoms: O_9  and  C_22 
REMARK   10  A    between atoms: O_10  and  C_23 
REMARK   11  A    between atoms: O_12  and  C_35 
REMARK   12  A    between atoms: O_14  and  C_42 
REMARK   13  A    between atoms: O_15  and  C_40 
REMARK   14  A    between atoms: C_16  and  C_25 
REMARK   15  A    between atoms: C_33  and  C_37 
ROOT
ATOM      1  O   UNK d   1      11.156  18.894   6.576  0.00  0.00    -0.348 OA
ATOM      2  C   UNK d   1      11.942  17.832   7.129  0.00  0.00     0.180 C 
ATOM      3  C   UNK d   1      12.913  18.412   8.171  0.00  0.00     0.180 C 
ATOM      4  C   UNK d   1      13.762  19.515   7.534  0.00  0.00     0.183 C 
ATOM      5  C   UNK d   1      12.883  20.572   6.857  0.00  0.00     0.205 C 
ATOM      6  C   UNK d   1      11.926  19.872   5.874  0.00  0.00     0.298 C 
ENDROOT
BRANCH   6   7
ATOM      7  O   UNK d   1      11.037  20.853   5.322  0.00  0.00    -0.318 OA
BRANCH   7   8
ATOM      8  C   UNK d   1      10.767  20.778   3.982  0.00  0.00     0.077 A 
ATOM      9  C   UNK d   1      10.692  21.848   3.094  0.00  0.00     0.074 A 
ATOM     10  C   UNK d   1      10.315  21.638   1.762  0.00  0.00     0.089 A 
ATOM     11  O   UNK d   1      10.178  22.782   1.025  0.00  0.00    -0.340 OA
ATOM     12  C   UNK d   1      10.079  20.348   1.283  0.00  0.00     0.076 A 
ATOM     13  C   UNK d   1       9.400  22.679  -0.172  0.00  0.00     0.169 C 
ATOM     14  C   UNK d   1       9.721  21.437  -0.986  0.00  0.00     0.121 C 
ATOM     15  C   UNK d   1       9.690  20.196  -0.142  0.00  0.00     0.167 C 
ATOM     16  O   UNK d   1       9.410  19.113  -0.646  0.00  0.00    -0.292 OA
ATOM     17  C   UNK d   1      10.193  19.270   2.169  0.00  0.00     0.085 A 
ATOM     18  C   UNK d   1      10.525  19.487   3.510  0.00  0.00     0.074 A 
BRANCH  13  19
ATOM     19  C   UNK d   1       7.917  22.948   0.074  0.00  0.00    -0.026 A 
ATOM     20  C   UNK d   1       6.911  22.584  -0.834  0.00  0.00     0.049 A 
ATOM     21  C   UNK d   1       5.565  22.844  -0.552  0.00  0.00     0.099 A 
ATOM     22  C   UNK d   1       5.180  23.479   0.634  0.00  0.00     0.101 A 
ATOM     23  C   UNK d   1       6.173  23.850   1.539  0.00  0.00     0.040 A 
ATOM     24  C   UNK d   1       7.522  23.587   1.261  0.00  0.00     0.012 A 
BRANCH  21  25
ATOM     25  O   UNK d   1       4.601  22.468  -1.451  0.00  0.00    -0.358 OA
ATOM     26  H   UNK d   1       3.731  22.534  -1.031  0.00  0.00     0.217 HD
ENDBRANCH  21  25
BRANCH  22  27
ATOM     27  O   UNK d   1       3.836  23.681   0.806  0.00  0.00    -0.353 OA
ATOM     28  C   UNK d   1       3.345  25.002   0.639  0.00  0.00     0.210 C 
ENDBRANCH  22  27
ENDBRANCH  13  19
BRANCH  17  29
ATOM     29  O   UNK d   1       9.968  17.989   1.751  0.00  0.00    -0.360 OA
ATOM     30  H   UNK d   1       9.020  17.843   1.599  0.00  0.00     0.217 HD
ENDBRANCH  17  29
ENDBRANCH   7   8
ENDBRANCH   6   7
BRANCH   5  31
ATOM     31  O   UNK d   1      13.740  21.510   6.188  0.00  0.00    -0.388 OA
ATOM     32  H   UNK d   1      13.302  21.698   5.336  0.00  0.00     0.210 HD
ENDBRANCH   5  31
BRANCH   2  33
ATOM     33  C   UNK d   1      11.001  16.802   7.784  0.00  0.00     0.205 C 
BRANCH  33  34
ATOM     34  O   UNK d   1      11.013  15.540   7.106  0.00  0.00    -0.356 OA
BRANCH  34  35
ATOM     35  C   UNK d   1      10.305  15.545   5.860  0.00  0.00     0.291 C 
ATOM     36  O   UNK d   1       8.921  15.254   6.105  0.00  0.00    -0.351 OA
ATOM     37  C   UNK d   1       8.200  14.649   5.029  0.00  0.00     0.152 C 
ATOM     38  C   UNK d   1       8.779  15.035   3.663  0.00  0.00     0.178 C 
ATOM     39  C   UNK d   1       6.740  15.062   5.186  0.00  0.00     0.042 C 
ATOM     40  C   UNK d   1      10.216  14.501   3.557  0.00  0.00     0.183 C 
ATOM     41  C   UNK d   1      10.957  14.520   4.905  0.00  0.00     0.204 C 
BRANCH  38  42
ATOM     42  O   UNK d   1       8.028  14.520   2.563  0.00  0.00    -0.390 OA
ATOM     43  H   UNK d   1       8.117  13.550   2.570  0.00  0.00     0.210 HD
ENDBRANCH  38  42
BRANCH  40  44
ATOM     44  O   UNK d   1      10.934  15.299   2.590  0.00  0.00    -0.390 OA
ATOM     45  H   UNK d   1      10.766  14.872   1.727  0.00  0.00     0.210 HD
ENDBRANCH  40  44
BRANCH  41  46
ATOM     46  O   UNK d   1      12.353  14.769   4.681  0.00  0.00    -0.388 OA
ATOM     47  H   UNK d   1      12.411  15.105   3.762  0.00  0.00     0.210 HD
ENDBRANCH  41  46
ENDBRANCH  34  35
ENDBRANCH  33  34
ENDBRANCH   2  33
BRANCH   4  48
ATOM     48  O   UNK d   1      14.577  20.153   8.533  0.00  0.00    -0.390 OA
ATOM     49  H   UNK d   1      14.700  19.496   9.243  0.00  0.00     0.210 HD
ENDBRANCH   4  48
BRANCH   3  50
ATOM     50  O   UNK d   1      13.779  17.401   8.691  0.00  0.00    -0.390 OA
ATOM     51  H   UNK d   1      13.332  17.014   9.465  0.00  0.00     0.210 HD
ENDBRANCH   3  50
TORSDOF 15
ENDMDL
