MODEL 1
REMARK VINA RESULT:      -6.6      0.000      0.000
REMARK  13 active torsions:
REMARK  status: ('A' for Active; 'I' for Inactive)
REMARK    1  A    between atoms: S_2  and  C_10 
REMARK    2  A    between atoms: S_2  and  C_13 
REMARK    3  A    between atoms: O_5  and  C_23 
REMARK    4  A    between atoms: C_7  and  C_10 
REMARK    5  A    between atoms: C_7  and  C_11 
REMARK    6  A    between atoms: C_11  and  C_12 
REMARK    7  A    between atoms: C_13  and  C_15 
REMARK    8  A    between atoms: C_13  and  C_14 
REMARK    9  A    between atoms: C_14  and  C_16 
REMARK   10  A    between atoms: C_16  and  C_19 
REMARK   11  A    between atoms: C_20  and  C_23 
REMARK   12  A    between atoms: C_21  and  C_28 
REMARK   13  A    between atoms: C_32  and  C_33 
ROOT
ATOM      1  C   LIG d   1      24.647  -2.347  26.362  0.00  0.00     0.080 C 
ENDROOT
BRANCH   1   2
ATOM      2  S   LIG d   1      24.397  -3.917  27.288  0.00  0.00    -0.159 SA
BRANCH   2   3
ATOM      3  C   LIG d   1      25.997  -4.713  26.927  0.00  0.00     0.084 C 
BRANCH   3   4
ATOM      4  C   LIG d   1      26.012  -5.222  25.499  0.00  0.00    -0.022 A 
ATOM      5  C   LIG d   1      27.240  -5.990  25.040  0.00  0.00     0.011 A 
ATOM      6  C   LIG d   1      27.001  -4.606  24.520  0.00  0.00     0.011 A 
BRANCH   4   7
ATOM      7  C   LIG d   1      24.667  -5.704  24.959  0.00  0.00     0.123 C 
BRANCH   7   8
ATOM      8  C   LIG d   1      24.377  -7.181  25.270  0.00  0.00     0.173 C 
ATOM      9  O   LIG d   1      24.228  -7.930  24.260  0.00  0.00    -0.648 OA
ATOM     10  O   LIG d   1      24.327  -7.475  26.497  0.00  0.00    -0.648 OA
ENDBRANCH   7   8
ENDBRANCH   4   7
ENDBRANCH   3   4
ENDBRANCH   2   3
ENDBRANCH   1   2
BRANCH   1  11
ATOM     11  C   LIG d   1      23.410  -1.960  25.560  0.00  0.00    -0.043 A 
ATOM     12  C   LIG d   1      23.425  -1.918  24.155  0.00  0.00     0.019 A 
ATOM     13  C   LIG d   1      22.294  -1.536  23.419  0.00  0.00    -0.036 A 
ATOM     14  C   LIG d   1      21.118  -1.219  24.106  0.00  0.00     0.011 A 
ATOM     15  C   LIG d   1      21.079  -1.280  25.500  0.00  0.00     0.001 A 
ATOM     16  C   LIG d   1      22.217  -1.640  26.223  0.00  0.00     0.008 A 
BRANCH  13  17
ATOM     17  C   LIG d   1      22.435  -1.375  21.965  0.00  0.00     0.014 C 
ATOM     18  C   LIG d   1      23.472  -1.816  21.235  0.00  0.00     0.032 C 
BRANCH  18  19
ATOM     19  C   LIG d   1      23.580  -1.691  19.776  0.00  0.00     0.057 A 
ATOM     20  N   LIG d   1      24.773  -2.085  19.267  0.00  0.00    -0.248 NA
ATOM     21  C   LIG d   1      24.961  -2.025  17.938  0.00  0.00     0.069 A 
ATOM     22  C   LIG d   1      23.969  -1.550  17.054  0.00  0.00    -0.007 A 
ATOM     23  C   LIG d   1      26.169  -2.448  17.406  0.00  0.00     0.056 A 
ATOM     24  C   LIG d   1      22.758  -1.120  17.602  0.00  0.00     0.016 A 
ATOM     25  C   LIG d   1      24.205  -1.513  15.670  0.00  0.00     0.015 A 
ATOM     26  C   LIG d   1      22.562  -1.186  18.977  0.00  0.00     0.032 A 
ATOM     27  C   LIG d   1      25.426  -1.946  15.158  0.00  0.00     0.025 A 
ATOM     28  C   LIG d   1      26.403  -2.412  16.032  0.00  0.00     0.036 A 
ATOM     29 CL   LIG d   1      27.916  -2.946  15.408  0.00  0.00    -0.084 Cl
ENDBRANCH  18  19
ENDBRANCH  13  17
ENDBRANCH   1  11
BRANCH   1  30
ATOM     30  C   LIG d   1      25.060  -1.246  27.360  0.00  0.00     0.025 C 
BRANCH  30  31
ATOM     31  C   LIG d   1      25.889  -0.138  26.683  0.00  0.00     0.040 C 
BRANCH  31  32
ATOM     32  C   LIG d   1      25.051   0.772  25.804  0.00  0.00    -0.049 A 
ATOM     33  C   LIG d   1      25.284   1.036  24.429  0.00  0.00    -0.019 A 
ATOM     34  C   LIG d   1      24.330   1.845  23.760  0.00  0.00     0.011 A 
ATOM     35  C   LIG d   1      23.232   2.411  24.411  0.00  0.00     0.001 A 
ATOM     36  C   LIG d   1      23.043   2.184  25.762  0.00  0.00     0.001 A 
ATOM     37  C   LIG d   1      23.940   1.372  26.446  0.00  0.00     0.007 A 
BRANCH  33  38
ATOM     38  C   LIG d   1      26.486   0.512  23.620  0.00  0.00     0.078 C 
ATOM     39  C   LIG d   1      26.246   0.535  22.101  0.00  0.00     0.051 C 
ATOM     40  C   LIG d   1      27.798   1.201  24.004  0.00  0.00     0.051 C 
BRANCH  38  41
ATOM     41  O   LIG d   1      26.718  -0.885  23.923  0.00  0.00    -0.386 OA
ATOM     42  H   LIG d   1      27.539  -0.924  24.442  0.00  0.00     0.211 HD
ENDBRANCH  38  41
ENDBRANCH  33  38
ENDBRANCH  31  32
ENDBRANCH  30  31
ENDBRANCH   1  30
TORSDOF 13
ENDMDL
MODEL 2
REMARK VINA RESULT:      -6.5     24.603     29.805
REMARK  13 active torsions:
REMARK  status: ('A' for Active; 'I' for Inactive)
REMARK    1  A    between atoms: S_2  and  C_10 
REMARK    2  A    between atoms: S_2  and  C_13 
REMARK    3  A    between atoms: O_5  and  C_23 
REMARK    4  A    between atoms: C_7  and  C_10 
REMARK    5  A    between atoms: C_7  and  C_11 
REMARK    6  A    between atoms: C_11  and  C_12 
REMARK    7  A    between atoms: C_13  and  C_15 
REMARK    8  A    between atoms: C_13  and  C_14 
REMARK    9  A    between atoms: C_14  and  C_16 
REMARK   10  A    between atoms: C_16  and  C_19 
REMARK   11  A    between atoms: C_20  and  C_23 
REMARK   12  A    between atoms: C_21  and  C_28 
REMARK   13  A    between atoms: C_32  and  C_33 
ROOT
ATOM      1  C   LIG d   1      15.656  -4.836  -6.541  0.00  0.00     0.080 C 
ENDROOT
BRANCH   1   2
ATOM      2  S   LIG d   1      14.700  -5.019  -8.102  0.00  0.00    -0.159 SA
BRANCH   2   3
ATOM      3  C   LIG d   1      16.068  -4.827  -9.293  0.00  0.00     0.084 C 
BRANCH   3   4
ATOM      4  C   LIG d   1      16.045  -3.434  -9.889  0.00  0.00    -0.022 A 
ATOM      5  C   LIG d   1      17.036  -3.128 -11.000  0.00  0.00     0.011 A 
ATOM      6  C   LIG d   1      17.238  -2.521  -9.645  0.00  0.00     0.011 A 
BRANCH   4   7
ATOM      7  C   LIG d   1      14.662  -2.796 -10.016  0.00  0.00     0.123 C 
BRANCH   7   8
ATOM      8  C   LIG d   1      14.046  -2.945 -11.417  0.00  0.00     0.173 C 
ATOM      9  O   LIG d   1      13.709  -4.122 -11.739  0.00  0.00    -0.648 OA
ATOM     10  O   LIG d   1      13.945  -1.874 -12.079  0.00  0.00    -0.648 OA
ENDBRANCH   7   8
ENDBRANCH   4   7
ENDBRANCH   3   4
ENDBRANCH   2   3
ENDBRANCH   1   2
BRANCH   1  11
ATOM     11  C   LIG d   1      16.097  -3.396  -6.313  0.00  0.00    -0.043 A 
ATOM     12  C   LIG d   1      17.389  -3.083  -5.853  0.00  0.00     0.019 A 
ATOM     13  C   LIG d   1      17.785  -1.759  -5.618  0.00  0.00    -0.036 A 
ATOM     14  C   LIG d   1      16.878  -0.728  -5.877  0.00  0.00     0.011 A 
ATOM     15  C   LIG d   1      15.600  -1.018  -6.360  0.00  0.00     0.001 A 
ATOM     16  C   LIG d   1      15.210  -2.342  -6.569  0.00  0.00     0.008 A 
BRANCH  13  17
ATOM     17  C   LIG d   1      19.097  -1.528  -4.998  0.00  0.00     0.014 C 
ATOM     18  C   LIG d   1      19.297  -0.942  -3.806  0.00  0.00     0.032 C 
BRANCH  18  19
ATOM     19  C   LIG d   1      20.611  -0.759  -3.174  0.00  0.00     0.057 A 
ATOM     20  N   LIG d   1      21.051  -1.836  -2.479  0.00  0.00    -0.248 NA
ATOM     21  C   LIG d   1      22.252  -1.772  -1.881  0.00  0.00     0.069 A 
ATOM     22  C   LIG d   1      23.064  -0.619  -1.933  0.00  0.00    -0.007 A 
ATOM     23  C   LIG d   1      22.722  -2.877  -1.187  0.00  0.00     0.056 A 
ATOM     24  C   LIG d   1      22.578   0.490  -2.629  0.00  0.00     0.016 A 
ATOM     25  C   LIG d   1      24.317  -0.599  -1.300  0.00  0.00     0.015 A 
ATOM     26  C   LIG d   1      21.336   0.422  -3.252  0.00  0.00     0.032 A 
ATOM     27  C   LIG d   1      24.770  -1.722  -0.611  0.00  0.00     0.025 A 
ATOM     28  C   LIG d   1      23.968  -2.857  -0.558  0.00  0.00     0.036 A 
ATOM     29 CL   LIG d   1      24.518  -4.248   0.293  0.00  0.00    -0.084 Cl
ENDBRANCH  18  19
ENDBRANCH  13  17
ENDBRANCH   1  11
BRANCH   1  30
ATOM     30  C   LIG d   1      14.803  -5.374  -5.374  0.00  0.00     0.025 C 
BRANCH  30  31
ATOM     31  C   LIG d   1      15.599  -6.339  -4.477  0.00  0.00     0.040 C 
BRANCH  31  32
ATOM     32  C   LIG d   1      16.633  -5.631  -3.621  0.00  0.00    -0.049 A 
ATOM     33  C   LIG d   1      18.027  -5.901  -3.617  0.00  0.00    -0.019 A 
ATOM     34  C   LIG d   1      18.841  -5.063  -2.811  0.00  0.00     0.011 A 
ATOM     35  C   LIG d   1      18.317  -4.048  -2.009  0.00  0.00     0.001 A 
ATOM     36  C   LIG d   1      16.951  -3.827  -1.986  0.00  0.00     0.001 A 
ATOM     37  C   LIG d   1      16.123  -4.607  -2.785  0.00  0.00     0.007 A 
BRANCH  33  38
ATOM     38  C   LIG d   1      18.711  -7.026  -4.417  0.00  0.00     0.078 C 
ATOM     39  C   LIG d   1      18.762  -6.745  -5.928  0.00  0.00     0.051 C 
ATOM     40  C   LIG d   1      20.088  -7.392  -3.856  0.00  0.00     0.051 C 
BRANCH  38  41
ATOM     41  O   LIG d   1      17.947  -8.250  -4.308  0.00  0.00    -0.386 OA
ATOM     42  H   LIG d   1      18.572  -8.982  -4.452  0.00  0.00     0.211 HD
ENDBRANCH  38  41
ENDBRANCH  33  38
ENDBRANCH  31  32
ENDBRANCH  30  31
ENDBRANCH   1  30
TORSDOF 13
ENDMDL
MODEL 3
REMARK VINA RESULT:      -6.5     28.112     31.541
REMARK  13 active torsions:
REMARK  status: ('A' for Active; 'I' for Inactive)
REMARK    1  A    between atoms: S_2  and  C_10 
REMARK    2  A    between atoms: S_2  and  C_13 
REMARK    3  A    between atoms: O_5  and  C_23 
REMARK    4  A    between atoms: C_7  and  C_10 
REMARK    5  A    between atoms: C_7  and  C_11 
REMARK    6  A    between atoms: C_11  and  C_12 
REMARK    7  A    between atoms: C_13  and  C_15 
REMARK    8  A    between atoms: C_13  and  C_14 
REMARK    9  A    between atoms: C_14  and  C_16 
REMARK   10  A    between atoms: C_16  and  C_19 
REMARK   11  A    between atoms: C_20  and  C_23 
REMARK   12  A    between atoms: C_21  and  C_28 
REMARK   13  A    between atoms: C_32  and  C_33 
ROOT
ATOM      1  C   LIG d   1       8.988  15.122   7.308  0.00  0.00     0.080 C 
ENDROOT
BRANCH   1   2
ATOM      2  S   LIG d   1       9.542  16.415   8.493  0.00  0.00    -0.159 SA
BRANCH   2   3
ATOM      3  C   LIG d   1      11.144  16.831   7.727  0.00  0.00     0.084 C 
BRANCH   3   4
ATOM      4  C   LIG d   1      11.180  18.303   7.369  0.00  0.00    -0.022 A 
ATOM      5  C   LIG d   1       9.917  18.917   6.792  0.00  0.00     0.011 A 
ATOM      6  C   LIG d   1      11.100  18.695   5.900  0.00  0.00     0.011 A 
BRANCH   4   7
ATOM      7  C   LIG d   1      12.000  19.188   8.307  0.00  0.00     0.123 C 
BRANCH   7   8
ATOM      8  C   LIG d   1      13.511  18.912   8.244  0.00  0.00     0.173 C 
ATOM      9  O   LIG d   1      13.942  18.061   9.076  0.00  0.00    -0.648 OA
ATOM     10  O   LIG d   1      14.142  19.563   7.366  0.00  0.00    -0.648 OA
ENDBRANCH   7   8
ENDBRANCH   4   7
ENDBRANCH   3   4
ENDBRANCH   2   3
ENDBRANCH   1   2
BRANCH   1  11
ATOM     11  C   LIG d   1       7.759  15.562   6.522  0.00  0.00    -0.043 A 
ATOM     12  C   LIG d   1       7.866  16.369   5.375  0.00  0.00     0.019 A 
ATOM     13  C   LIG d   1       6.732  16.795   4.669  0.00  0.00    -0.036 A 
ATOM     14  C   LIG d   1       5.471  16.380   5.104  0.00  0.00     0.011 A 
ATOM     15  C   LIG d   1       5.348  15.557   6.225  0.00  0.00     0.001 A 
ATOM     16  C   LIG d   1       6.482  15.158   6.934  0.00  0.00     0.008 A 
BRANCH  13  17
ATOM     17  C   LIG d   1       6.920  17.756   3.572  0.00  0.00     0.014 C 
ATOM     18  C   LIG d   1       8.086  18.335   3.243  0.00  0.00     0.032 C 
BRANCH  18  19
ATOM     19  C   LIG d   1       8.271  19.257   2.114  0.00  0.00     0.057 A 
ATOM     20  N   LIG d   1       8.581  20.526   2.475  0.00  0.00    -0.248 NA
ATOM     21  C   LIG d   1       8.788  21.440   1.511  0.00  0.00     0.069 A 
ATOM     22  C   LIG d   1       8.676  21.131   0.139  0.00  0.00    -0.007 A 
ATOM     23  C   LIG d   1       9.129  22.735   1.869  0.00  0.00     0.056 A 
ATOM     24  C   LIG d   1       8.326  19.825  -0.210  0.00  0.00     0.016 A 
ATOM     25  C   LIG d   1       8.910  22.116  -0.835  0.00  0.00     0.015 A 
ATOM     26  C   LIG d   1       8.116  18.878   0.788  0.00  0.00     0.032 A 
ATOM     27  C   LIG d   1       9.254  23.410  -0.452  0.00  0.00     0.025 A 
ATOM     28  C   LIG d   1       9.361  23.713   0.901  0.00  0.00     0.036 A 
ATOM     29 CL   LIG d   1       9.784  25.310   1.384  0.00  0.00    -0.084 Cl
ENDBRANCH  18  19
ENDBRANCH  13  17
ENDBRANCH   1  11
BRANCH   1  30
ATOM     30  C   LIG d   1      10.170  14.762   6.383  0.00  0.00     0.025 C 
BRANCH  30  31
ATOM     31  C   LIG d   1       9.891  13.488   5.565  0.00  0.00     0.040 C 
BRANCH  31  32
ATOM     32  C   LIG d   1       9.466  13.783   4.138  0.00  0.00    -0.049 A 
ATOM     33  C   LIG d   1       8.454  13.096   3.418  0.00  0.00    -0.019 A 
ATOM     34  C   LIG d   1       8.140  13.586   2.125  0.00  0.00     0.011 A 
ATOM     35  C   LIG d   1       8.816  14.660   1.540  0.00  0.00     0.001 A 
ATOM     36  C   LIG d   1       9.834  15.290   2.235  0.00  0.00     0.001 A 
ATOM     37  C   LIG d   1      10.149  14.859   3.517  0.00  0.00     0.007 A 
BRANCH  33  38
ATOM     38  C   LIG d   1       7.679  11.870   3.937  0.00  0.00     0.078 C 
ATOM     39  C   LIG d   1       6.716  12.208   5.088  0.00  0.00     0.051 C 
ATOM     40  C   LIG d   1       6.981  11.097   2.814  0.00  0.00     0.051 C 
BRANCH  38  41
ATOM     41  O   LIG d   1       8.596  10.908   4.511  0.00  0.00    -0.386 OA
ATOM     42  H   LIG d   1       9.060  10.488   3.767  0.00  0.00     0.211 HD
ENDBRANCH  38  41
ENDBRANCH  33  38
ENDBRANCH  31  32
ENDBRANCH  30  31
ENDBRANCH   1  30
TORSDOF 13
ENDMDL
MODEL 4
REMARK VINA RESULT:      -6.4      2.192      5.692
REMARK  13 active torsions:
REMARK  status: ('A' for Active; 'I' for Inactive)
REMARK    1  A    between atoms: S_2  and  C_10 
REMARK    2  A    between atoms: S_2  and  C_13 
REMARK    3  A    between atoms: O_5  and  C_23 
REMARK    4  A    between atoms: C_7  and  C_10 
REMARK    5  A    between atoms: C_7  and  C_11 
REMARK    6  A    between atoms: C_11  and  C_12 
REMARK    7  A    between atoms: C_13  and  C_15 
REMARK    8  A    between atoms: C_13  and  C_14 
REMARK    9  A    between atoms: C_14  and  C_16 
REMARK   10  A    between atoms: C_16  and  C_19 
REMARK   11  A    between atoms: C_20  and  C_23 
REMARK   12  A    between atoms: C_21  and  C_28 
REMARK   13  A    between atoms: C_32  and  C_33 
ROOT
ATOM      1  C   LIG d   1      24.415  -0.945  26.691  0.00  0.00     0.080 C 
ENDROOT
BRANCH   1   2
ATOM      2  S   LIG d   1      24.537   0.763  27.363  0.00  0.00    -0.159 SA
BRANCH   2   3
ATOM      3  C   LIG d   1      25.254   1.589  25.903  0.00  0.00     0.084 C 
BRANCH   3   4
ATOM      4  C   LIG d   1      24.321   2.679  25.414  0.00  0.00    -0.022 A 
ATOM      5  C   LIG d   1      22.827   2.417  25.502  0.00  0.00     0.011 A 
ATOM      6  C   LIG d   1      23.496   2.421  24.162  0.00  0.00     0.011 A 
BRANCH   4   7
ATOM      7  C   LIG d   1      24.778   4.110  25.694  0.00  0.00     0.123 C 
BRANCH   7   8
ATOM      8  C   LIG d   1      24.039   4.769  26.869  0.00  0.00     0.173 C 
ATOM      9  O   LIG d   1      23.238   5.698  26.555  0.00  0.00    -0.648 OA
ATOM     10  O   LIG d   1      24.314   4.303  28.011  0.00  0.00    -0.648 OA
ENDBRANCH   7   8
ENDBRANCH   4   7
ENDBRANCH   3   4
ENDBRANCH   2   3
ENDBRANCH   1   2
BRANCH   1  11
ATOM     11  C   LIG d   1      23.183  -1.121  25.812  0.00  0.00    -0.043 A 
ATOM     12  C   LIG d   1      23.283  -1.222  24.412  0.00  0.00     0.019 A 
ATOM     13  C   LIG d   1      22.147  -1.357  23.603  0.00  0.00    -0.036 A 
ATOM     14  C   LIG d   1      20.890  -1.422  24.210  0.00  0.00     0.011 A 
ATOM     15  C   LIG d   1      20.774  -1.350  25.599  0.00  0.00     0.001 A 
ATOM     16  C   LIG d   1      21.911  -1.193  26.394  0.00  0.00     0.008 A 
BRANCH  13  17
ATOM     17  C   LIG d   1      22.325  -1.306  22.144  0.00  0.00     0.014 C 
ATOM     18  C   LIG d   1      23.464  -1.596  21.494  0.00  0.00     0.032 C 
BRANCH  18  19
ATOM     19  C   LIG d   1      23.617  -1.588  20.033  0.00  0.00     0.057 A 
ATOM     20  N   LIG d   1      24.845  -1.961  19.598  0.00  0.00    -0.248 NA
ATOM     21  C   LIG d   1      25.077  -2.003  18.275  0.00  0.00     0.069 A 
ATOM     22  C   LIG d   1      24.095  -1.655  17.323  0.00  0.00    -0.007 A 
ATOM     23  C   LIG d   1      26.322  -2.406  17.818  0.00  0.00     0.056 A 
ATOM     24  C   LIG d   1      22.846  -1.243  17.794  0.00  0.00     0.016 A 
ATOM     25  C   LIG d   1      24.378  -1.721  15.949  0.00  0.00     0.015 A 
ATOM     26  C   LIG d   1      22.605  -1.204  19.163  0.00  0.00     0.032 A 
ATOM     27  C   LIG d   1      25.636  -2.132  15.514  0.00  0.00     0.025 A 
ATOM     28  C   LIG d   1      26.603  -2.473  16.454  0.00  0.00     0.036 A 
ATOM     29 CL   LIG d   1      28.161  -2.979  15.925  0.00  0.00    -0.084 Cl
ENDBRANCH  18  19
ENDBRANCH  13  17
ENDBRANCH   1  11
BRANCH   1  30
ATOM     30  C   LIG d   1      25.720  -1.272  25.935  0.00  0.00     0.025 C 
BRANCH  30  31
ATOM     31  C   LIG d   1      26.060  -2.772  26.000  0.00  0.00     0.040 C 
BRANCH  31  32
ATOM     32  C   LIG d   1      25.978  -3.456  24.648  0.00  0.00    -0.049 A 
ATOM     33  C   LIG d   1      25.229  -4.626  24.359  0.00  0.00    -0.019 A 
ATOM     34  C   LIG d   1      25.207  -5.056  23.007  0.00  0.00     0.011 A 
ATOM     35  C   LIG d   1      25.922  -4.409  21.997  0.00  0.00     0.001 A 
ATOM     36  C   LIG d   1      26.687  -3.297  22.303  0.00  0.00     0.001 A 
ATOM     37  C   LIG d   1      26.709  -2.827  23.610  0.00  0.00     0.007 A 
BRANCH  33  38
ATOM     38  C   LIG d   1      24.445  -5.453  25.396  0.00  0.00     0.078 C 
ATOM     39  C   LIG d   1      25.338  -6.030  26.507  0.00  0.00     0.051 C 
ATOM     40  C   LIG d   1      23.243  -4.693  25.965  0.00  0.00     0.051 C 
BRANCH  38  41
ATOM     41  O   LIG d   1      23.862  -6.618  24.766  0.00  0.00    -0.386 OA
ATOM     42  H   LIG d   1      22.933  -6.653  25.052  0.00  0.00     0.211 HD
ENDBRANCH  38  41
ENDBRANCH  33  38
ENDBRANCH  31  32
ENDBRANCH  30  31
ENDBRANCH   1  30
TORSDOF 13
ENDMDL
MODEL 5
REMARK VINA RESULT:      -6.4      3.727      6.117
REMARK  13 active torsions:
REMARK  status: ('A' for Active; 'I' for Inactive)
REMARK    1  A    between atoms: S_2  and  C_10 
REMARK    2  A    between atoms: S_2  and  C_13 
REMARK    3  A    between atoms: O_5  and  C_23 
REMARK    4  A    between atoms: C_7  and  C_10 
REMARK    5  A    between atoms: C_7  and  C_11 
REMARK    6  A    between atoms: C_11  and  C_12 
REMARK    7  A    between atoms: C_13  and  C_15 
REMARK    8  A    between atoms: C_13  and  C_14 
REMARK    9  A    between atoms: C_14  and  C_16 
REMARK   10  A    between atoms: C_16  and  C_19 
REMARK   11  A    between atoms: C_20  and  C_23 
REMARK   12  A    between atoms: C_21  and  C_28 
REMARK   13  A    between atoms: C_32  and  C_33 
ROOT
ATOM      1  C   LIG d   1      25.928  -0.936  20.552  0.00  0.00     0.080 C 
ENDROOT
BRANCH   1   2
ATOM      2  S   LIG d   1      26.086  -2.589  21.345  0.00  0.00    -0.159 SA
BRANCH   2   3
ATOM      3  C   LIG d   1      26.704  -3.530  19.911  0.00  0.00     0.084 C 
BRANCH   3   4
ATOM      4  C   LIG d   1      25.674  -4.557  19.482  0.00  0.00    -0.022 A 
ATOM      5  C   LIG d   1      26.054  -5.505  18.357  0.00  0.00     0.011 A 
ATOM      6  C   LIG d   1      25.049  -4.424  18.101  0.00  0.00     0.011 A 
BRANCH   4   7
ATOM      7  C   LIG d   1      24.822  -5.143  20.607  0.00  0.00     0.123 C 
BRANCH   7   8
ATOM      8  C   LIG d   1      25.414  -6.423  21.219  0.00  0.00     0.173 C 
ATOM      9  O   LIG d   1      24.809  -7.495  20.925  0.00  0.00    -0.648 OA
ATOM     10  O   LIG d   1      26.438  -6.254  21.939  0.00  0.00    -0.648 OA
ENDBRANCH   7   8
ENDBRANCH   4   7
ENDBRANCH   3   4
ENDBRANCH   2   3
ENDBRANCH   1   2
BRANCH   1  11
ATOM     11  C   LIG d   1      24.930  -0.954  19.400  0.00  0.00    -0.043 A 
ATOM     12  C   LIG d   1      25.328  -0.695  18.076  0.00  0.00     0.019 A 
ATOM     13  C   LIG d   1      24.404  -0.686  17.021  0.00  0.00    -0.036 A 
ATOM     14  C   LIG d   1      23.064  -0.970  17.295  0.00  0.00     0.011 A 
ATOM     15  C   LIG d   1      22.657  -1.255  18.600  0.00  0.00     0.001 A 
ATOM     16  C   LIG d   1      23.581  -1.239  19.646  0.00  0.00     0.008 A 
BRANCH  13  17
ATOM     17  C   LIG d   1      24.873  -0.261  15.694  0.00  0.00     0.014 C 
ATOM     18  C   LIG d   1      25.251  -1.089  14.706  0.00  0.00     0.032 C 
BRANCH  18  19
ATOM     19  C   LIG d   1      25.672  -0.654  13.368  0.00  0.00     0.057 A 
ATOM     20  N   LIG d   1      25.201   0.562  13.001  0.00  0.00    -0.248 NA
ATOM     21  C   LIG d   1      25.548   1.055  11.800  0.00  0.00     0.069 A 
ATOM     22  C   LIG d   1      26.368   0.344  10.898  0.00  0.00    -0.007 A 
ATOM     23  C   LIG d   1      25.091   2.309  11.425  0.00  0.00     0.056 A 
ATOM     24  C   LIG d   1      26.818  -0.922  11.284  0.00  0.00     0.016 A 
ATOM     25  C   LIG d   1      26.713   0.901   9.656  0.00  0.00     0.015 A 
ATOM     26  C   LIG d   1      26.462  -1.429  12.529  0.00  0.00     0.032 A 
ATOM     27  C   LIG d   1      26.244   2.164   9.303  0.00  0.00     0.025 A 
ATOM     28  C   LIG d   1      25.433   2.862  10.191  0.00  0.00     0.036 A 
ATOM     29 CL   LIG d   1      24.848   4.422   9.761  0.00  0.00    -0.084 Cl
ENDBRANCH  18  19
ENDBRANCH  13  17
ENDBRANCH   1  11
BRANCH   1  30
ATOM     30  C   LIG d   1      25.547   0.095  21.634  0.00  0.00     0.025 C 
BRANCH  30  31
ATOM     31  C   LIG d   1      24.942  -0.577  22.881  0.00  0.00     0.040 C 
BRANCH  31  32
ATOM     32  C   LIG d   1      23.980   0.326  23.631  0.00  0.00    -0.049 A 
ATOM     33  C   LIG d   1      22.759  -0.083  24.229  0.00  0.00    -0.019 A 
ATOM     34  C   LIG d   1      22.046   0.896  24.967  0.00  0.00     0.011 A 
ATOM     35  C   LIG d   1      22.473   2.222  25.071  0.00  0.00     0.001 A 
ATOM     36  C   LIG d   1      23.640   2.619  24.442  0.00  0.00     0.001 A 
ATOM     37  C   LIG d   1      24.383   1.680  23.736  0.00  0.00     0.007 A 
BRANCH  33  38
ATOM     38  C   LIG d   1      22.163  -1.500  24.138  0.00  0.00     0.078 C 
ATOM     39  C   LIG d   1      23.078  -2.580  24.739  0.00  0.00     0.051 C 
ATOM     40  C   LIG d   1      20.740  -1.576  24.701  0.00  0.00     0.051 C 
BRANCH  38  41
ATOM     41  O   LIG d   1      22.015  -1.890  22.752  0.00  0.00    -0.386 OA
ATOM     42  H   LIG d   1      21.811  -2.841  22.750  0.00  0.00     0.211 HD
ENDBRANCH  38  41
ENDBRANCH  33  38
ENDBRANCH  31  32
ENDBRANCH  30  31
ENDBRANCH   1  30
TORSDOF 13
ENDMDL
MODEL 6
REMARK VINA RESULT:      -6.4     31.906     35.494
REMARK  13 active torsions:
REMARK  status: ('A' for Active; 'I' for Inactive)
REMARK    1  A    between atoms: S_2  and  C_10 
REMARK    2  A    between atoms: S_2  and  C_13 
REMARK    3  A    between atoms: O_5  and  C_23 
REMARK    4  A    between atoms: C_7  and  C_10 
REMARK    5  A    between atoms: C_7  and  C_11 
REMARK    6  A    between atoms: C_11  and  C_12 
REMARK    7  A    between atoms: C_13  and  C_15 
REMARK    8  A    between atoms: C_13  and  C_14 
REMARK    9  A    between atoms: C_14  and  C_16 
REMARK   10  A    between atoms: C_16  and  C_19 
REMARK   11  A    between atoms: C_20  and  C_23 
REMARK   12  A    between atoms: C_21  and  C_28 
REMARK   13  A    between atoms: C_32  and  C_33 
ROOT
ATOM      1  C   LIG d   1       8.235  17.044   2.017  0.00  0.00     0.080 C 
ENDROOT
BRANCH   1   2
ATOM      2  S   LIG d   1       9.648  16.352   2.970  0.00  0.00    -0.159 SA
BRANCH   2   3
ATOM      3  C   LIG d   1       9.464  14.597   2.509  0.00  0.00     0.084 C 
BRANCH   3   4
ATOM      4  C   LIG d   1       8.483  13.916   3.442  0.00  0.00    -0.022 A 
ATOM      5  C   LIG d   1       8.514  14.316   4.908  0.00  0.00     0.011 A 
ATOM      6  C   LIG d   1       9.028  12.969   4.502  0.00  0.00     0.011 A 
BRANCH   4   7
ATOM      7  C   LIG d   1       7.107  13.618   2.848  0.00  0.00     0.123 C 
BRANCH   7   8
ATOM      8  C   LIG d   1       7.155  12.661   1.646  0.00  0.00     0.173 C 
ATOM      9  O   LIG d   1       7.243  11.432   1.934  0.00  0.00    -0.648 OA
ATOM     10  O   LIG d   1       7.094  13.215   0.512  0.00  0.00    -0.648 OA
ENDBRANCH   7   8
ENDBRANCH   4   7
ENDBRANCH   3   4
ENDBRANCH   2   3
ENDBRANCH   1   2
BRANCH   1  11
ATOM     11  C   LIG d   1       7.409  18.014   2.854  0.00  0.00    -0.043 A 
ATOM     12  C   LIG d   1       6.797  19.145   2.284  0.00  0.00     0.019 A 
ATOM     13  C   LIG d   1       6.059  20.050   3.059  0.00  0.00    -0.036 A 
ATOM     14  C   LIG d   1       5.908  19.800   4.426  0.00  0.00     0.011 A 
ATOM     15  C   LIG d   1       6.486  18.668   5.003  0.00  0.00     0.001 A 
ATOM     16  C   LIG d   1       7.237  17.785   4.225  0.00  0.00     0.008 A 
BRANCH  13  17
ATOM     17  C   LIG d   1       5.579  21.282   2.417  0.00  0.00     0.014 C 
ATOM     18  C   LIG d   1       5.679  21.560   1.107  0.00  0.00     0.032 C 
BRANCH  18  19
ATOM     19  C   LIG d   1       5.152  22.774   0.469  0.00  0.00     0.057 A 
ATOM     20  N   LIG d   1       3.808  22.779   0.300  0.00  0.00    -0.248 NA
ATOM     21  C   LIG d   1       3.230  23.855  -0.259  0.00  0.00     0.069 A 
ATOM     22  C   LIG d   1       3.973  24.973  -0.694  0.00  0.00    -0.007 A 
ATOM     23  C   LIG d   1       1.852  23.879  -0.415  0.00  0.00     0.056 A 
ATOM     24  C   LIG d   1       5.360  24.935  -0.539  0.00  0.00     0.016 A 
ATOM     25  C   LIG d   1       3.326  26.081  -1.266  0.00  0.00     0.015 A 
ATOM     26  C   LIG d   1       5.958  23.822   0.044  0.00  0.00     0.032 A 
ATOM     27  C   LIG d   1       1.941  26.084  -1.409  0.00  0.00     0.025 A 
ATOM     28  C   LIG d   1       1.210  24.980  -0.982  0.00  0.00     0.036 A 
ATOM     29 CL   LIG d   1      -0.502  24.974  -1.158  0.00  0.00    -0.084 Cl
ENDBRANCH  18  19
ENDBRANCH  13  17
ENDBRANCH   1  11
BRANCH   1  30
ATOM     30  C   LIG d   1       8.781  17.704   0.734  0.00  0.00     0.025 C 
BRANCH  30  31
ATOM     31  C   LIG d   1      10.083  18.483   0.998  0.00  0.00     0.040 C 
BRANCH  31  32
ATOM     32  C   LIG d   1       9.924  19.980   0.812  0.00  0.00    -0.049 A 
ATOM     33  C   LIG d   1      10.490  20.981   1.645  0.00  0.00    -0.019 A 
ATOM     34  C   LIG d   1      10.302  22.329   1.246  0.00  0.00     0.011 A 
ATOM     35  C   LIG d   1       9.554  22.687   0.122  0.00  0.00     0.001 A 
ATOM     36  C   LIG d   1       8.968  21.703  -0.653  0.00  0.00     0.001 A 
ATOM     37  C   LIG d   1       9.156  20.368  -0.313  0.00  0.00     0.007 A 
BRANCH  33  38
ATOM     38  C   LIG d   1      11.288  20.710   2.935  0.00  0.00     0.078 C 
ATOM     39  C   LIG d   1      11.894  21.983   3.548  0.00  0.00     0.051 C 
ATOM     40  C   LIG d   1      10.487  19.904   3.962  0.00  0.00     0.051 C 
BRANCH  38  41
ATOM     41  O   LIG d   1      12.433  19.874   2.645  0.00  0.00    -0.386 OA
ATOM     42  H   LIG d   1      12.761  20.145   1.770  0.00  0.00     0.211 HD
ENDBRANCH  38  41
ENDBRANCH  33  38
ENDBRANCH  31  32
ENDBRANCH  30  31
ENDBRANCH   1  30
TORSDOF 13
ENDMDL
MODEL 7
REMARK VINA RESULT:      -6.4     21.939     27.298
REMARK  13 active torsions:
REMARK  status: ('A' for Active; 'I' for Inactive)
REMARK    1  A    between atoms: S_2  and  C_10 
REMARK    2  A    between atoms: S_2  and  C_13 
REMARK    3  A    between atoms: O_5  and  C_23 
REMARK    4  A    between atoms: C_7  and  C_10 
REMARK    5  A    between atoms: C_7  and  C_11 
REMARK    6  A    between atoms: C_11  and  C_12 
REMARK    7  A    between atoms: C_13  and  C_15 
REMARK    8  A    between atoms: C_13  and  C_14 
REMARK    9  A    between atoms: C_14  and  C_16 
REMARK   10  A    between atoms: C_16  and  C_19 
REMARK   11  A    between atoms: C_20  and  C_23 
REMARK   12  A    between atoms: C_21  and  C_28 
REMARK   13  A    between atoms: C_32  and  C_33 
ROOT
ATOM      1  C   LIG d   1      22.323   7.196  -2.339  0.00  0.00     0.080 C 
ENDROOT
BRANCH   1   2
ATOM      2  S   LIG d   1      24.028   7.875  -2.464  0.00  0.00    -0.159 SA
BRANCH   2   3
ATOM      3  C   LIG d   1      24.879   6.701  -1.359  0.00  0.00     0.084 C 
BRANCH   3   4
ATOM      4  C   LIG d   1      25.552   5.615  -2.175  0.00  0.00    -0.022 A 
ATOM      5  C   LIG d   1      24.922   4.232  -2.160  0.00  0.00     0.011 A 
ATOM      6  C   LIG d   1      26.214   4.459  -1.439  0.00  0.00     0.011 A 
BRANCH   4   7
ATOM      7  C   LIG d   1      26.162   6.070  -3.499  0.00  0.00     0.123 C 
BRANCH   7   8
ATOM      8  C   LIG d   1      25.717   5.223  -4.702  0.00  0.00     0.173 C 
ATOM      9  O   LIG d   1      24.579   5.510  -5.177  0.00  0.00    -0.648 OA
ATOM     10  O   LIG d   1      26.541   4.343  -5.077  0.00  0.00    -0.648 OA
ENDBRANCH   7   8
ENDBRANCH   4   7
ENDBRANCH   3   4
ENDBRANCH   2   3
ENDBRANCH   1   2
BRANCH   1  11
ATOM     11  C   LIG d   1      21.397   8.129  -1.568  0.00  0.00    -0.043 A 
ATOM     12  C   LIG d   1      21.748   8.639  -0.306  0.00  0.00     0.019 A 
ATOM     13  C   LIG d   1      20.883   9.476   0.414  0.00  0.00    -0.036 A 
ATOM     14  C   LIG d   1      19.658   9.832  -0.157  0.00  0.00     0.011 A 
ATOM     15  C   LIG d   1      19.305   9.355  -1.421  0.00  0.00     0.001 A 
ATOM     16  C   LIG d   1      20.164   8.504  -2.119  0.00  0.00     0.008 A 
BRANCH  13  17
ATOM     17  C   LIG d   1      21.259   9.845   1.786  0.00  0.00     0.014 C 
ATOM     18  C   LIG d   1      22.448   9.589   2.358  0.00  0.00     0.032 C 
BRANCH  18  19
ATOM     19  C   LIG d   1      22.829  10.005   3.714  0.00  0.00     0.057 A 
ATOM     20  N   LIG d   1      22.228  11.142   4.140  0.00  0.00    -0.248 NA
ATOM     21  C   LIG d   1      22.499  11.593   5.376  0.00  0.00     0.069 A 
ATOM     22  C   LIG d   1      23.401  10.937   6.240  0.00  0.00    -0.007 A 
ATOM     23  C   LIG d   1      21.870  12.743   5.830  0.00  0.00     0.056 A 
ATOM     24  C   LIG d   1      24.033   9.784   5.770  0.00  0.00     0.016 A 
ATOM     25  C   LIG d   1      23.648  11.440   7.528  0.00  0.00     0.015 A 
ATOM     26  C   LIG d   1      23.749   9.315   4.492  0.00  0.00     0.032 A 
ATOM     27  C   LIG d   1      23.003  12.595   7.963  0.00  0.00     0.025 A 
ATOM     28  C   LIG d   1      22.116  13.242   7.109  0.00  0.00     0.036 A 
ATOM     29 CL   LIG d   1      21.317  14.671   7.638  0.00  0.00    -0.084 Cl
ENDBRANCH  18  19
ENDBRANCH  13  17
ENDBRANCH   1  11
BRANCH   1  30
ATOM     30  C   LIG d   1      21.802   6.906  -3.762  0.00  0.00     0.025 C 
BRANCH  30  31
ATOM     31  C   LIG d   1      21.362   5.439  -3.925  0.00  0.00     0.040 C 
BRANCH  31  32
ATOM     32  C   LIG d   1      20.375   5.242  -5.061  0.00  0.00    -0.049 A 
ATOM     33  C   LIG d   1      20.284   4.089  -5.884  0.00  0.00    -0.019 A 
ATOM     34  C   LIG d   1      19.229   4.060  -6.832  0.00  0.00     0.011 A 
ATOM     35  C   LIG d   1      18.341   5.123  -7.006  0.00  0.00     0.001 A 
ATOM     36  C   LIG d   1      18.471   6.261  -6.229  0.00  0.00     0.001 A 
ATOM     37  C   LIG d   1      19.473   6.315  -5.267  0.00  0.00     0.007 A 
BRANCH  33  38
ATOM     38  C   LIG d   1      21.237   2.880  -5.821  0.00  0.00     0.078 C 
ATOM     39  C   LIG d   1      21.120   2.089  -4.507  0.00  0.00     0.051 C 
ATOM     40  C   LIG d   1      21.117   1.972  -7.048  0.00  0.00     0.051 C 
BRANCH  38  41
ATOM     41  O   LIG d   1      22.612   3.329  -5.846  0.00  0.00    -0.386 OA
ATOM     42  H   LIG d   1      23.125   2.684  -5.328  0.00  0.00     0.211 HD
ENDBRANCH  38  41
ENDBRANCH  33  38
ENDBRANCH  31  32
ENDBRANCH  30  31
ENDBRANCH   1  30
TORSDOF 13
ENDMDL
MODEL 8
REMARK VINA RESULT:      -6.4     33.211     36.788
REMARK  13 active torsions:
REMARK  status: ('A' for Active; 'I' for Inactive)
REMARK    1  A    between atoms: S_2  and  C_10 
REMARK    2  A    between atoms: S_2  and  C_13 
REMARK    3  A    between atoms: O_5  and  C_23 
REMARK    4  A    between atoms: C_7  and  C_10 
REMARK    5  A    between atoms: C_7  and  C_11 
REMARK    6  A    between atoms: C_11  and  C_12 
REMARK    7  A    between atoms: C_13  and  C_15 
REMARK    8  A    between atoms: C_13  and  C_14 
REMARK    9  A    between atoms: C_14  and  C_16 
REMARK   10  A    between atoms: C_16  and  C_19 
REMARK   11  A    between atoms: C_20  and  C_23 
REMARK   12  A    between atoms: C_21  and  C_28 
REMARK   13  A    between atoms: C_32  and  C_33 
ROOT
ATOM      1  C   LIG d   1       7.909  18.672   0.860  0.00  0.00     0.080 C 
ENDROOT
BRANCH   1   2
ATOM      2  S   LIG d   1       9.142  17.604   1.711  0.00  0.00    -0.159 SA
BRANCH   2   3
ATOM      3  C   LIG d   1       8.176  16.060   1.780  0.00  0.00     0.084 C 
BRANCH   3   4
ATOM      4  C   LIG d   1       8.118  15.548   3.206  0.00  0.00    -0.022 A 
ATOM      5  C   LIG d   1       7.490  14.184   3.438  0.00  0.00     0.011 A 
ATOM      6  C   LIG d   1       6.757  15.416   3.874  0.00  0.00     0.011 A 
BRANCH   4   7
ATOM      7  C   LIG d   1       9.320  15.902   4.081  0.00  0.00     0.123 C 
BRANCH   7   8
ATOM      8  C   LIG d   1      10.445  14.856   4.027  0.00  0.00     0.173 C 
ATOM      9  O   LIG d   1      10.578  14.148   5.067  0.00  0.00    -0.648 OA
ATOM     10  O   LIG d   1      11.100  14.822   2.947  0.00  0.00    -0.648 OA
ENDBRANCH   7   8
ENDBRANCH   4   7
ENDBRANCH   3   4
ENDBRANCH   2   3
ENDBRANCH   1   2
BRANCH   1  11
ATOM     11  C   LIG d   1       7.169  19.574   1.841  0.00  0.00    -0.043 A 
ATOM     12  C   LIG d   1       6.467  20.714   1.410  0.00  0.00     0.019 A 
ATOM     13  C   LIG d   1       5.809  21.557   2.316  0.00  0.00    -0.036 A 
ATOM     14  C   LIG d   1       5.830  21.234   3.676  0.00  0.00     0.011 A 
ATOM     15  C   LIG d   1       6.499  20.091   4.118  0.00  0.00     0.001 A 
ATOM     16  C   LIG d   1       7.170  19.271   3.209  0.00  0.00     0.008 A 
BRANCH  13  17
ATOM     17  C   LIG d   1       5.227  22.806   1.804  0.00  0.00     0.014 C 
ATOM     18  C   LIG d   1       5.840  23.658   0.966  0.00  0.00     0.032 C 
BRANCH  18  19
ATOM     19  C   LIG d   1       5.230  24.879   0.422  0.00  0.00     0.057 A 
ATOM     20  N   LIG d   1       6.099  25.902   0.236  0.00  0.00    -0.248 NA
ATOM     21  C   LIG d   1       5.638  27.056  -0.275  0.00  0.00     0.069 A 
ATOM     22  C   LIG d   1       4.281  27.249  -0.607  0.00  0.00    -0.007 A 
ATOM     23  C   LIG d   1       6.523  28.102  -0.491  0.00  0.00     0.056 A 
ATOM     24  C   LIG d   1       3.397  26.191  -0.379  0.00  0.00     0.016 A 
ATOM     25  C   LIG d   1       3.844  28.470  -1.148  0.00  0.00     0.015 A 
ATOM     26  C   LIG d   1       3.875  24.995   0.147  0.00  0.00     0.032 A 
ATOM     27  C   LIG d   1       4.752  29.504  -1.359  0.00  0.00     0.025 A 
ATOM     28  C   LIG d   1       6.090  29.314  -1.028  0.00  0.00     0.036 A 
ATOM     29 CL   LIG d   1       7.218  30.588  -1.283  0.00  0.00    -0.084 Cl
ENDBRANCH  18  19
ENDBRANCH  13  17
ENDBRANCH   1  11
BRANCH   1  30
ATOM     30  C   LIG d   1       8.629  19.479  -0.240  0.00  0.00     0.025 C 
BRANCH  30  31
ATOM     31  C   LIG d   1       9.670  20.450   0.348  0.00  0.00     0.040 C 
BRANCH  31  32
ATOM     32  C   LIG d   1       9.405  21.897  -0.026  0.00  0.00    -0.049 A 
ATOM     33  C   LIG d   1       9.777  23.030   0.743  0.00  0.00    -0.019 A 
ATOM     34  C   LIG d   1       9.522  24.304   0.174  0.00  0.00     0.011 A 
ATOM     35  C   LIG d   1       8.886  24.466  -1.059  0.00  0.00     0.001 A 
ATOM     36  C   LIG d   1       8.486  23.352  -1.776  0.00  0.00     0.001 A 
ATOM     37  C   LIG d   1       8.746  22.086  -1.266  0.00  0.00     0.007 A 
BRANCH  33  38
ATOM     38  C   LIG d   1      10.434  22.976   2.136  0.00  0.00     0.078 C 
ATOM     39  C   LIG d   1       9.518  22.370   3.212  0.00  0.00     0.051 C 
ATOM     40  C   LIG d   1      11.810  22.303   2.110  0.00  0.00     0.051 C 
BRANCH  38  41
ATOM     41  O   LIG d   1      10.704  24.316   2.611  0.00  0.00    -0.386 OA
ATOM     42  H   LIG d   1      10.307  24.925   1.965  0.00  0.00     0.211 HD
ENDBRANCH  38  41
ENDBRANCH  33  38
ENDBRANCH  31  32
ENDBRANCH  30  31
ENDBRANCH   1  30
TORSDOF 13
ENDMDL
MODEL 9
REMARK VINA RESULT:      -6.3     30.857     34.819
REMARK  13 active torsions:
REMARK  status: ('A' for Active; 'I' for Inactive)
REMARK    1  A    between atoms: S_2  and  C_10 
REMARK    2  A    between atoms: S_2  and  C_13 
REMARK    3  A    between atoms: O_5  and  C_23 
REMARK    4  A    between atoms: C_7  and  C_10 
REMARK    5  A    between atoms: C_7  and  C_11 
REMARK    6  A    between atoms: C_11  and  C_12 
REMARK    7  A    between atoms: C_13  and  C_15 
REMARK    8  A    between atoms: C_13  and  C_14 
REMARK    9  A    between atoms: C_14  and  C_16 
REMARK   10  A    between atoms: C_16  and  C_19 
REMARK   11  A    between atoms: C_20  and  C_23 
REMARK   12  A    between atoms: C_21  and  C_28 
REMARK   13  A    between atoms: C_32  and  C_33 
ROOT
ATOM      1  C   LIG d   1       8.165  23.024   2.733  0.00  0.00     0.080 C 
ENDROOT
BRANCH   1   2
ATOM      2  S   LIG d   1       8.716  23.095   4.487  0.00  0.00    -0.159 SA
BRANCH   2   3
ATOM      3  C   LIG d   1      10.284  23.996   4.251  0.00  0.00     0.084 C 
BRANCH   3   4
ATOM      4  C   LIG d   1      11.430  23.013   4.109  0.00  0.00    -0.022 A 
ATOM      5  C   LIG d   1      12.828  23.583   3.940  0.00  0.00     0.011 A 
ATOM      6  C   LIG d   1      12.153  22.931   2.772  0.00  0.00     0.011 A 
BRANCH   4   7
ATOM      7  C   LIG d   1      11.311  21.739   4.944  0.00  0.00     0.123 C 
BRANCH   7   8
ATOM      8  C   LIG d   1      12.661  21.221   5.464  0.00  0.00     0.173 C 
ATOM      9  O   LIG d   1      13.104  21.800   6.499  0.00  0.00    -0.648 OA
ATOM     10  O   LIG d   1      13.168  20.273   4.800  0.00  0.00    -0.648 OA
ENDBRANCH   7   8
ENDBRANCH   4   7
ENDBRANCH   3   4
ENDBRANCH   2   3
ENDBRANCH   1   2
BRANCH   1  11
ATOM     11  C   LIG d   1       8.704  21.790   2.020  0.00  0.00    -0.043 A 
ATOM     12  C   LIG d   1       8.485  20.494   2.519  0.00  0.00     0.019 A 
ATOM     13  C   LIG d   1       9.005  19.361   1.876  0.00  0.00    -0.036 A 
ATOM     14  C   LIG d   1       9.731  19.530   0.695  0.00  0.00     0.011 A 
ATOM     15  C   LIG d   1       9.936  20.808   0.171  0.00  0.00     0.001 A 
ATOM     16  C   LIG d   1       9.433  21.930   0.831  0.00  0.00     0.008 A 
BRANCH  13  17
ATOM     17  C   LIG d   1       8.858  18.059   2.541  0.00  0.00     0.014 C 
ATOM     18  C   LIG d   1       8.954  16.865   1.934  0.00  0.00     0.032 C 
BRANCH  18  19
ATOM     19  C   LIG d   1       8.853  15.569   2.618  0.00  0.00     0.057 A 
ATOM     20  N   LIG d   1       8.018  14.685   2.020  0.00  0.00    -0.248 NA
ATOM     21  C   LIG d   1       7.873  13.464   2.561  0.00  0.00     0.069 A 
ATOM     22  C   LIG d   1       8.543  13.074   3.740  0.00  0.00    -0.007 A 
ATOM     23  C   LIG d   1       7.038  12.544   1.944  0.00  0.00     0.056 A 
ATOM     24  C   LIG d   1       9.376  14.011   4.357  0.00  0.00     0.016 A 
ATOM     25  C   LIG d   1       8.369  11.784   4.267  0.00  0.00     0.015 A 
ATOM     26  C   LIG d   1       9.529  15.273   3.794  0.00  0.00     0.032 A 
ATOM     27  C   LIG d   1       7.528  10.876   3.627  0.00  0.00     0.025 A 
ATOM     28  C   LIG d   1       6.866  11.263   2.467  0.00  0.00     0.036 A 
ATOM     29 CL   LIG d   1       5.823  10.148   1.672  0.00  0.00    -0.084 Cl
ENDBRANCH  18  19
ENDBRANCH  13  17
ENDBRANCH   1  11
BRANCH   1  30
ATOM     30  C   LIG d   1       6.624  23.088   2.698  0.00  0.00     0.025 C 
BRANCH  30  31
ATOM     31  C   LIG d   1       6.114  24.058   1.617  0.00  0.00     0.040 C 
BRANCH  31  32
ATOM     32  C   LIG d   1       6.338  23.543   0.207  0.00  0.00    -0.049 A 
ATOM     33  C   LIG d   1       7.114  24.186  -0.793  0.00  0.00    -0.019 A 
ATOM     34  C   LIG d   1       7.278  23.494  -2.021  0.00  0.00     0.011 A 
ATOM     35  C   LIG d   1       6.672  22.262  -2.280  0.00  0.00     0.001 A 
ATOM     36  C   LIG d   1       5.880  21.670  -1.313  0.00  0.00     0.001 A 
ATOM     37  C   LIG d   1       5.720  22.302  -0.086  0.00  0.00     0.007 A 
BRANCH  33  38
ATOM     38  C   LIG d   1       7.784  25.564  -0.642  0.00  0.00     0.078 C 
ATOM     39  C   LIG d   1       6.791  26.682  -0.283  0.00  0.00     0.051 C 
ATOM     40  C   LIG d   1       8.982  25.533   0.313  0.00  0.00     0.051 C 
BRANCH  38  41
ATOM     41  O   LIG d   1       8.351  25.984  -1.906  0.00  0.00    -0.386 OA
ATOM     42  H   LIG d   1       8.587  26.922  -1.807  0.00  0.00     0.211 HD
ENDBRANCH  38  41
ENDBRANCH  33  38
ENDBRANCH  31  32
ENDBRANCH  30  31
ENDBRANCH   1  30
TORSDOF 13
ENDMDL
