REMARK  8 active torsions:
REMARK  status: ('A' for Active; 'I' for Inactive)
REMARK    1  A    between atoms: S_1  and  N_7 
REMARK    2  A    between atoms: S_1  and  C_11 
REMARK    3  A    between atoms: O_4  and  C_22 
REMARK    4  A    between atoms: N_7  and  C_17 
REMARK    5  A    between atoms: N_8  and  N_10 
REMARK    6  A    between atoms: N_8  and  C_14 
REMARK    7  A    between atoms: N_10  and  C_18 
REMARK    8  A    between atoms: C_20  and  C_28 
ROOT
ATOM      1  C   LIG d   1       9.114 -10.230   2.013  0.00  0.00     0.075 A 
ATOM      2  C   LIG d   1       8.716  -9.075   2.682  0.00  0.00     0.027 A 
ATOM      3  C   LIG d   1       9.709 -11.283   2.707  0.00  0.00     0.027 A 
ATOM      4  C   LIG d   1       9.578  -9.992   4.784  0.00  0.00     0.079 A 
ATOM      5  C   LIG d   1       8.957  -8.965   4.055  0.00  0.00     0.035 A 
ATOM      6  C   LIG d   1       9.942 -11.148   4.077  0.00  0.00     0.035 A 
ENDROOT
BRANCH   4   7
ATOM      7  N   LIG d   1       9.871  -9.941   6.104  0.00  0.00    -0.150 NA
BRANCH   7   8
ATOM      8  N   LIG d   1      11.313 -10.029   6.442  0.00  0.00    -0.150 NA
BRANCH   8   9
ATOM      9  C   LIG d   1      12.018  -8.867   6.333  0.00  0.00     0.080 A 
ATOM     10  C   LIG d   1      11.943  -7.899   7.373  0.00  0.00     0.054 A 
ATOM     11  C   LIG d   1      12.636  -6.661   7.343  0.00  0.00     0.076 A 
ATOM     12  C   LIG d   1      13.423  -6.398   6.210  0.00  0.00     0.082 A 
ATOM     13  C   LIG d   1      13.518  -7.311   5.166  0.00  0.00     0.040 A 
ATOM     14  C   LIG d   1      12.822  -8.525   5.234  0.00  0.00     0.036 A 
BRANCH  11  15
ATOM     15  C   LIG d   1      12.546  -5.651   8.472  0.00  0.00     0.212 C 
ATOM     16  O   LIG d   1      11.517  -5.759   9.242  0.00  0.00    -0.644 OA
ATOM     17  O   LIG d   1      13.448  -4.765   8.635  0.00  0.00    -0.644 OA
ENDBRANCH  11  15
BRANCH  12  18
ATOM     18  O   LIG d   1      14.139  -5.226   6.078  0.00  0.00    -0.360 OA
ATOM     19  H   LIG d   1      14.103  -4.834   6.992  0.00  0.00     0.217 HD
ENDBRANCH  12  18
ENDBRANCH   8   9
ENDBRANCH   7   8
ENDBRANCH   4   7
BRANCH   1  20
ATOM     20  S   LIG d   1       8.872 -10.378   0.271  0.00  0.00     0.247 S 
ATOM     21  O   LIG d   1       9.130 -11.753  -0.121  0.00  0.00    -0.205 OA
ATOM     22  O   LIG d   1       7.624  -9.749  -0.120  0.00  0.00    -0.205 OA
BRANCH  20  23
ATOM     23  N   LIG d   1      10.163  -9.479  -0.384  0.00  0.00    -0.165 NA
ATOM     24  H   LIG d   1      10.987 -10.082  -0.372  0.00  0.00     0.147 HD
BRANCH  23  25
ATOM     25  C   LIG d   1      10.517  -8.322   0.346  0.00  0.00     0.116 C 
ATOM     26  N   LIG d   1      11.435  -8.601   1.283  0.00  0.00    -0.248 NA
ATOM     27  C   LIG d   1      11.749  -7.592   2.124  0.00  0.00     0.118 C 
ATOM     28  C   LIG d   1      11.270  -6.298   1.985  0.00  0.00     0.019 C 
ATOM     29  C   LIG d   1      10.400  -6.025   0.934  0.00  0.00     0.005 C 
ATOM     30  C   LIG d   1      10.009  -7.061   0.094  0.00  0.00     0.045 C 
ENDBRANCH  23  25
ENDBRANCH  20  23
ENDBRANCH   1  20
TORSDOF 8
