REMARK  9 active torsions:
REMARK  status: ('A' for Active; 'I' for Inactive)
REMARK    1  A    between atoms: N_3  and  C_17 
REMARK    2  A    between atoms: N_4  and  C_18 
REMARK       I    between atoms: N_5  and  C_19 
REMARK       I    between atoms: N_6  and  C_20 
REMARK       I    between atoms: N_7  and  C_19 
REMARK       I    between atoms: N_8  and  C_20 
REMARK       I    between atoms: N_9  and  C_21 
REMARK    3  A    between atoms: N_9  and  C_23 
REMARK       I    between atoms: N_10  and  C_22 
REMARK    4  A    between atoms: N_10  and  C_24 
REMARK       I    between atoms: N_11  and  C_21 
REMARK       I    between atoms: N_12  and  C_22 
REMARK    5  A    between atoms: C_13  and  C_14 
REMARK    6  A    between atoms: C_13  and  C_15 
REMARK    7  A    between atoms: C_14  and  C_16 
REMARK    8  A    between atoms: C_15  and  C_17 
REMARK    9  A    between atoms: C_16  and  C_18 
ROOT
ATOM      1  C   LIG d   1       0.540  19.199 -15.815  0.00  0.00     0.002 C 
ENDROOT
BRANCH   1   2
ATOM      2  C   LIG d   1      -0.735  19.616 -15.082  0.00  0.00     0.002 C 
BRANCH   2   3
ATOM      3  C   LIG d   1      -0.725  21.110 -14.760  0.00  0.00     0.022 C 
BRANCH   3   4
ATOM      4  C   LIG d   1      -1.191  21.372 -13.329  0.00  0.00     0.152 C 
BRANCH   4   5
ATOM      5  N   LIG d   1      -0.052  21.290 -12.418  0.00  0.00    -0.261 NA
ATOM      6  C   LIG d   1       0.723  22.302 -12.264  0.00  0.00     0.197 C 
ATOM      7  N   LIG d   1       1.762  22.192 -11.390  0.00  0.00    -0.190 NA
ATOM      8  N   LIG d   1       0.609  23.525 -12.843  0.00  0.00    -0.271 NA
ATOM      9  C   LIG d   1       2.454  21.104 -11.291  0.00  0.00     0.180 C 
ATOM     10  N   LIG d   1       3.524  20.922 -10.452  0.00  0.00    -0.331 N 
ATOM     11  N   LIG d   1       2.271  19.960 -12.018  0.00  0.00    -0.272 NA
ATOM     12  H   LIG d   1       4.231  20.311 -10.835  0.00  0.00     0.168 HD
ATOM     13  H   LIG d   1       1.361  20.011 -12.487  0.00  0.00     0.127 HD
ATOM     14  H   LIG d   1       2.271  19.136 -11.427  0.00  0.00     0.127 HD
ATOM     15  H   LIG d   1      -0.340  23.851 -12.939  0.00  0.00     0.127 HD
ATOM     16  H   LIG d   1       1.192  24.192 -12.353  0.00  0.00     0.127 HD
BRANCH  10  17
ATOM     17  C   LIG d   1       3.965  21.763  -9.416  0.00  0.00     0.034 A 
ATOM     18  C   LIG d   1       4.500  23.021  -9.737  0.00  0.00     0.031 A 
ATOM     19  C   LIG d   1       4.972  23.883  -8.741  0.00  0.00     0.026 A 
ATOM     20  C   LIG d   1       4.924  23.489  -7.407  0.00  0.00     0.034 A 
ATOM     21 CL   LIG d   1       5.507  24.543  -6.180  0.00  0.00    -0.084 Cl
ATOM     22  C   LIG d   1       4.411  22.244  -7.065  0.00  0.00     0.026 A 
ATOM     23  C   LIG d   1       3.938  21.388  -8.065  0.00  0.00     0.031 A 
ENDBRANCH  10  17
ENDBRANCH   4   5
ENDBRANCH   3   4
ENDBRANCH   2   3
ENDBRANCH   1   2
BRANCH   1  24
ATOM     24  C   LIG d   1       1.384  18.249 -14.966  0.00  0.00     0.022 C 
BRANCH  24  25
ATOM     25  C   LIG d   1       0.520  17.482 -13.965  0.00  0.00     0.152 C 
BRANCH  25  26
ATOM     26  N   LIG d   1       0.829  17.902 -12.602  0.00  0.00    -0.261 NA
ATOM     27  C   LIG d   1       0.980  17.026 -11.673  0.00  0.00     0.197 C 
ATOM     28  N   LIG d   1       1.271  17.443 -10.405  0.00  0.00    -0.190 NA
ATOM     29  N   LIG d   1       0.934  15.676 -11.815  0.00  0.00    -0.271 NA
ATOM     30  C   LIG d   1       0.888  18.598  -9.951  0.00  0.00     0.180 C 
ATOM     31  N   LIG d   1       1.263  18.941  -8.684  0.00  0.00    -0.331 N 
ATOM     32  N   LIG d   1       0.203  19.554 -10.637  0.00  0.00    -0.272 NA
ATOM     33  H   LIG d   1       1.850  18.230  -8.261  0.00  0.00     0.168 HD
ATOM     34  H   LIG d   1       0.217  19.338 -11.638  0.00  0.00     0.127 HD
ATOM     35  H   LIG d   1       0.569  20.484 -10.469  0.00  0.00     0.127 HD
ATOM     36  H   LIG d   1       1.289  15.333 -12.694  0.00  0.00     0.127 HD
ATOM     37  H   LIG d   1       1.363  15.222 -11.018  0.00  0.00     0.127 HD
BRANCH  31  38
ATOM     38  C   LIG d   1       0.632  19.762  -7.728  0.00  0.00     0.034 A 
ATOM     39  C   LIG d   1      -0.376  19.192  -6.931  0.00  0.00     0.031 A 
ATOM     40  C   LIG d   1      -1.011  19.928  -5.925  0.00  0.00     0.026 A 
ATOM     41  C   LIG d   1      -0.637  21.248  -5.699  0.00  0.00     0.034 A 
ATOM     42 CL   LIG d   1      -1.410  22.158  -4.461  0.00  0.00    -0.084 Cl
ATOM     43  C   LIG d   1       0.363  21.832  -6.469  0.00  0.00     0.026 A 
ATOM     44  C   LIG d   1       0.995  21.090  -7.473  0.00  0.00     0.031 A 
ENDBRANCH  31  38
ENDBRANCH  25  26
ENDBRANCH  24  25
ENDBRANCH   1  24
TORSDOF 9
