@<TRIPOS>MOLECULE
*****
 19 18 0 0 0
SMALL
GASTEIGER

@<TRIPOS>ATOM
      1  S          2.6568    3.5594    2.6238 S.3     1  UNK1       -0.1481
      2  O          0.3778    0.1656    0.2491 O.co2   1  UNK1       -0.8438
      3  O          0.2969    1.9742   -1.1797 O.co2   1  UNK1       -0.3030
      4  O          4.7775    3.6665    4.8005 O.co2   1  UNK1       -0.8470
      5  O          5.9109    5.1239    3.4524 O.co2   1  UNK1       -0.3081
      6  N          0.4904    1.4857    2.4325 N.4     1  UNK1        0.2261
      7  C          0.7422    2.2746    1.1527 C.3     1  UNK1        0.0344
      8  C          2.2173    2.6598    1.0911 C.3     1  UNK1        0.0432
      9  C          0.4637    1.3919   -0.0854 C.2     1  UNK1        0.1370
     10  C          4.4751    3.5470    2.4346 C.3     1  UNK1        0.0426
     11  C          5.0922    4.1878    3.6907 C.2     1  UNK1        0.0971
     12  H         -0.5059    1.4582    2.6454 H       1  UNK1        0.2001
     13  H          1.0671    1.8371    3.2065 H       1  UNK1        0.2001
     14  H          0.7501    0.5175    2.1597 H       1  UNK1        0.2001
     15  H          0.0781    3.1444    1.1858 H       1  UNK1        0.0931
     16  H          2.8461    1.7648    1.0143 H       1  UNK1        0.0436
     17  H          2.4240    3.3015    0.2293 H       1  UNK1        0.0436
     18  H          4.7443    4.1098    1.5359 H       1  UNK1        0.0445
     19  H          4.8415    2.5201    2.3457 H       1  UNK1        0.0445
@<TRIPOS>BOND
     1     1     8    1
     2     1    10    1
     3     2     9   ar
     4     3     9   ar
     5     4    11   ar
     6     5    11   ar
     7     6     7    1
     8     6    12    1
     9     6    13    1
    10     6    14    1
    11     7     9    1
    12     7     8    1
    13     7    15    1
    14     8    16    1
    15     8    17    1
    16    10    11    1
    17    10    18    1
    18    10    19    1
