@<TRIPOS>MOLECULE
*****
 64 65 0 0 0
SMALL
GASTEIGER

@<TRIPOS>ATOM
      1 CL          4.3687  -11.0528   -0.1725 Cl      1  LIG11      -0.0835
      2 CL          5.4900   13.8325   -3.0446 Cl      1  LIG11      -0.0835
      3 N           8.4811   -2.6919    1.3960 N.pl3   1  LIG11      -0.1104
      4 N           5.2613    5.1228   -0.7564 N.pl3   1  LIG11      -0.1104
      5 N           9.1803   -4.5685    0.2920 N.pl3   1  LIG11      -0.0033
      6 N           5.9792    7.2611   -1.0347 N.pl3   1  LIG11      -0.0033
      7 N           9.9338   -2.5482   -0.4633 N.pl3   1  LIG11      -0.2860
      8 N           7.1428    5.6148   -2.1092 N.pl3   1  LIG11      -0.2860
      9 N           8.3231   -6.6715    0.5247 N.pl3   1  LIG11      -0.2432
     10 N           5.4859    9.0308    0.4551 N.pl3   1  LIG11      -0.2432
     11 N           7.0474   -4.9084    1.2864 N.pl3   1  LIG11      -0.2883
     12 N           5.3619    6.9518    1.2365 N.pl3   1  LIG11      -0.2883
     13 C           7.3170    0.8913    0.8361 C.3     1  LIG11      -0.0500
     14 C           6.3671    1.5309   -0.1771 C.3     1  LIG11      -0.0500
     15 C           7.4263   -0.6181    0.6195 C.3     1  LIG11      -0.0186
     16 C           6.2697    3.0420    0.0316 C.3     1  LIG11      -0.0186
     17 C           8.4446   -1.2426    1.5720 C.3     1  LIG11       0.1048
     18 C           5.3583    3.6883   -1.0087 C.3     1  LIG11       0.1048
     19 C           9.1595   -3.2109    0.4350 C.cat   1  LIG11       0.4249
     20 C           6.1154    5.9283   -1.2784 C.cat   1  LIG11       0.4249
     21 C           8.1915   -5.3196    0.6744 C.cat   1  LIG11       0.3944
     22 C           5.6258    7.7075    0.1264 C.cat   1  LIG11       0.3944
     23 C           7.3554   -7.6709    0.3046 C.ar    1  LIG11       0.1001
     24 C           5.4975   10.1430   -0.4054 C.ar    1  LIG11       0.1001
     25 C           7.7490   -9.0129    0.4454 C.ar    1  LIG11      -0.0218
     26 C           5.8454   11.4022    0.1101 C.ar    1  LIG11      -0.0218
     27 C           6.0084   -7.4102    0.0251 C.ar    1  LIG11      -0.0218
     28 C           5.1314   10.0655   -1.7557 C.ar    1  LIG11      -0.0218
     29 C           6.8323  -10.0586    0.2951 C.ar    1  LIG11      -0.0401
     30 C           5.8493   12.5412   -0.7029 C.ar    1  LIG11      -0.0401
     31 C           5.0856   -8.4519   -0.1270 C.ar    1  LIG11      -0.0401
     32 C           5.1296   11.2009   -2.5734 C.ar    1  LIG11      -0.0401
     33 C           5.5018   -9.7721    0.0094 C.ar    1  LIG11       0.0412
     34 C           5.4920   12.4342   -2.0432 C.ar    1  LIG11       0.0412
     35 H          10.3960   -1.7304   -0.0971 H       1  LIG11       0.2548
     36 H          10.5750   -3.1870   -0.9168 H       1  LIG11       0.2548
     37 H           6.9329    4.8848   -2.7722 H       1  LIG11       0.2548
     38 H           7.4845    6.4542   -2.5630 H       1  LIG11       0.2548
     39 H           9.2327   -6.9209    0.1542 H       1  LIG11       0.2648
     40 H           5.7321    9.2325    1.4138 H       1  LIG11       0.2648
     41 H           7.1575   -3.9432    1.6105 H       1  LIG11       0.2547
     42 H           6.7818   -5.5138    2.0529 H       1  LIG11       0.2547
     43 H           5.2601    5.9726    0.9508 H       1  LIG11       0.2547
     44 H           4.5003    7.2366    1.6869 H       1  LIG11       0.2547
     45 H           6.9614    1.0917    1.8541 H       1  LIG11       0.0266
     46 H           8.3098    1.3484    0.7441 H       1  LIG11       0.0266
     47 H           5.3712    1.0807   -0.0860 H       1  LIG11       0.0266
     48 H           6.7239    1.3243   -1.1936 H       1  LIG11       0.0266
     49 H           7.7131   -0.8191   -0.4194 H       1  LIG11       0.0297
     50 H           6.4454   -1.0864    0.7691 H       1  LIG11       0.0297
     51 H           7.2705    3.4873   -0.0230 H       1  LIG11       0.0297
     52 H           5.8865    3.2539    1.0377 H       1  LIG11       0.0297
     53 H           9.4339   -0.7852    1.4597 H       1  LIG11       0.0693
     54 H           8.1411   -1.0427    2.6066 H       1  LIG11       0.0693
     55 H           5.6894    3.4567   -2.0267 H       1  LIG11       0.0693
     56 H           4.3502    3.2657   -0.9227 H       1  LIG11       0.0693
     57 H           8.7816   -9.2552    0.6876 H       1  LIG11       0.0652
     58 H           6.1275   11.5094    1.1547 H       1  LIG11       0.0652
     59 H           5.6561   -6.3905   -0.1096 H       1  LIG11       0.0652
     60 H           4.8225    9.1173   -2.1889 H       1  LIG11       0.0652
     61 H           7.1635  -11.0871    0.4090 H       1  LIG11       0.0633
     62 H           6.1302   13.5029   -0.2827 H       1  LIG11       0.0633
     63 H           4.0483   -8.2200   -0.3531 H       1  LIG11       0.0633
     64 H           4.8389   11.1096   -3.6161 H       1  LIG11       0.0633
@<TRIPOS>BOND
     1     1    33    1
     2     2    34    1
     3     3    17    1
     4     3    19    2
     5     4    18    1
     6     4    20    2
     7     5    19    1
     8     5    21    2
     9     6    20    1
    10     6    22    2
    11     7    19    1
    12     7    35    1
    13     7    36    1
    14     8    20    1
    15     8    37    1
    16     8    38    1
    17     9    21    1
    18     9    23    1
    19     9    39    1
    20    10    22    1
    21    10    24    1
    22    10    40    1
    23    11    21    1
    24    11    41    1
    25    11    42    1
    26    12    22    1
    27    12    43    1
    28    12    44    1
    29    13    14    1
    30    13    15    1
    31    13    45    1
    32    13    46    1
    33    14    16    1
    34    14    47    1
    35    14    48    1
    36    15    17    1
    37    15    49    1
    38    15    50    1
    39    16    18    1
    40    16    51    1
    41    16    52    1
    42    17    53    1
    43    17    54    1
    44    18    55    1
    45    18    56    1
    46    23    25   ar
    47    23    27   ar
    48    24    26   ar
    49    24    28   ar
    50    25    29   ar
    51    25    57    1
    52    26    30   ar
    53    26    58    1
    54    27    31   ar
    55    27    59    1
    56    28    32   ar
    57    28    60    1
    58    29    33   ar
    59    29    61    1
    60    30    34   ar
    61    30    62    1
    62    31    33   ar
    63    31    63    1
    64    32    34   ar
    65    32    64    1
