@<TRIPOS>MOLECULE
*****
 64 65 0 0 0
SMALL
GASTEIGER

@<TRIPOS>ATOM
      1 CL          4.2364  -10.8319    0.1638 Cl      1  LIG1       -0.0835
      2 CL          5.3536   13.5955   -3.1964 Cl      1  LIG1       -0.0835
      3  N          8.3881   -2.6788    1.3092 N.pl3   1  LIG1       -0.1104
      4  N          5.3179    5.1611   -0.8543 N.pl3   1  LIG1       -0.1104
      5  N          9.2194   -4.4859    0.1734 N.pl3   1  LIG1       -0.0033
      6  N          6.1518    7.2571   -0.9193 N.pl3   1  LIG1       -0.0033
      7  N          9.9287   -2.3993   -0.4546 N.pl3   1  LIG1       -0.2860
      8  N          7.4587    5.5874   -1.7819 N.pl3   1  LIG1       -0.2860
      9  N          8.4394   -6.6414    0.3707 N.pl3   1  LIG1       -0.2432
     10  N          5.5568    8.9962    0.5528 N.pl3   1  LIG1       -0.2432
     11  N          7.2241   -4.9722    1.3720 N.pl3   1  LIG1       -0.2883
     12  N          5.4339    6.9010    1.3177 N.pl3   1  LIG1       -0.2883
     13  C          7.0999    0.8511    0.7780 C.3     1  LIG1       -0.0500
     14  C          6.2554    1.5220   -0.3024 C.3     1  LIG1       -0.0500
     15  C          7.2956   -0.6367    0.5032 C.3     1  LIG1       -0.0186
     16  C          6.1643    3.0236   -0.0437 C.3     1  LIG1       -0.0186
     17  C          8.2464   -1.2471    1.5318 C.3     1  LIG1        0.1048
     18  C          5.3883    3.7342   -1.1453 C.3     1  LIG1        0.1048
     19  C          9.1436   -3.1346    0.3748 C.cat   1  LIG1        0.4249
     20  C          6.2959    5.9295   -1.1703 C.cat   1  LIG1        0.4249
     21  C          8.3083   -5.3004    0.6144 C.cat   1  LIG1        0.3944
     22  C          5.7373    7.6762    0.2324 C.cat   1  LIG1        0.3944
     23  C          7.4294   -7.6137    0.2183 C.ar    1  LIG1        0.1001
     24  C          5.4924   10.0743   -0.3461 C.ar    1  LIG1        0.1001
     25  C          7.7690   -8.9663    0.3698 C.ar    1  LIG1       -0.0218
     26  C          5.9281   11.3437    0.0596 C.ar    1  LIG1       -0.0218
     27  C          6.0797   -7.2936    0.0118 C.ar    1  LIG1       -0.0218
     28  C          5.0101    9.9281   -1.6552 C.ar    1  LIG1       -0.0218
     29  C          6.7865   -9.9629    0.3420 C.ar    1  LIG1       -0.0401
     30  C          5.8886   12.4314   -0.8201 C.ar    1  LIG1       -0.0401
     31  C          5.0934   -8.2832   -0.0152 C.ar    1  LIG1       -0.0401
     32  C          4.9630   11.0112   -2.5366 C.ar    1  LIG1       -0.0401
     33  C          5.4509   -9.6146    0.1598 C.ar    1  LIG1        0.0412
     34  C          5.4052   12.2595   -2.1147 C.ar    1  LIG1        0.0412
     35  H         10.2394   -1.5126   -0.0907 H       1  LIG1        0.2548
     36  H         10.6712   -2.9583   -0.8541 H       1  LIG1        0.2548
     37  H          7.4068    4.7984   -2.4059 H       1  LIG1        0.2548
     38  H          7.8950    6.4003   -2.2000 H       1  LIG1        0.2548
     39  H          9.2983   -6.8742   -0.1130 H       1  LIG1        0.2648
     40  H          5.7712    9.2325    1.5103 H       1  LIG1        0.2648
     41  H          7.3150   -4.0133    1.7190 H       1  LIG1        0.2547
     42  H          7.0558   -5.6268    2.1245 H       1  LIG1        0.2547
     43  H          5.3080    5.9323    1.0128 H       1  LIG1        0.2547
     44  H          4.5845    7.2060    1.7772 H       1  LIG1        0.2547
     45  H          6.6206    0.9850    1.7555 H       1  LIG1        0.0266
     46  H          8.0796    1.3418    0.8292 H       1  LIG1        0.0266
     47  H          5.2507    1.0830   -0.3201 H       1  LIG1        0.0266
     48  H          6.7053    1.3453   -1.2871 H       1  LIG1        0.0266
     49  H          7.6937   -0.7744   -0.5089 H       1  LIG1        0.0297
     50  H          6.3284   -1.1539    0.5314 H       1  LIG1        0.0297
     51  H          7.1755    3.4420    0.0294 H       1  LIG1        0.0297
     52  H          5.6814    3.2070    0.9243 H       1  LIG1        0.0297
     53  H          9.2145   -0.7347    1.5433 H       1  LIG1        0.0693
     54  H          7.8229   -1.1096    2.5339 H       1  LIG1        0.0693
     55  H          5.8129    3.5320   -2.1350 H       1  LIG1        0.0693
     56  H          4.3632    3.3471   -1.1777 H       1  LIG1        0.0693
     57  H          8.8034   -9.2536    0.5437 H       1  LIG1        0.0652
     58  H          6.3193   11.4963    1.0622 H       1  LIG1        0.0652
     59  H          5.7744   -6.2606   -0.1420 H       1  LIG1        0.0652
     60  H          4.6494    8.9616   -2.0012 H       1  LIG1        0.0652
     61  H          7.0691  -11.0027    0.4805 H       1  LIG1        0.0633
     62  H          6.2400   13.4048   -0.4897 H       1  LIG1        0.0633
     63  H          4.0552   -7.9997   -0.1639 H       1  LIG1        0.0633
     64  H          4.5813   10.8657   -3.5431 H       1  LIG1        0.0633
@<TRIPOS>BOND
     1     1    33    1
     2     2    34    1
     3     3    17    1
     4     3    19    2
     5     4    18    1
     6     4    20    2
     7     5    19    1
     8     5    21    2
     9     6    20    1
    10     6    22    2
    11     7    19    1
    12     7    35    1
    13     7    36    1
    14     8    20    1
    15     8    37    1
    16     8    38    1
    17     9    21    1
    18     9    23    1
    19     9    39    1
    20    10    22    1
    21    10    24    1
    22    10    40    1
    23    11    21    1
    24    11    41    1
    25    11    42    1
    26    12    22    1
    27    12    43    1
    28    12    44    1
    29    13    14    1
    30    13    15    1
    31    13    45    1
    32    13    46    1
    33    14    16    1
    34    14    47    1
    35    14    48    1
    36    15    17    1
    37    15    49    1
    38    15    50    1
    39    16    18    1
    40    16    51    1
    41    16    52    1
    42    17    53    1
    43    17    54    1
    44    18    55    1
    45    18    56    1
    46    23    25   ar
    47    23    27   ar
    48    24    26   ar
    49    24    28   ar
    50    25    29   ar
    51    25    57    1
    52    26    30   ar
    53    26    58    1
    54    27    31   ar
    55    27    59    1
    56    28    32   ar
    57    28    60    1
    58    29    33   ar
    59    29    61    1
    60    30    34   ar
    61    30    62    1
    62    31    33   ar
    63    31    63    1
    64    32    34   ar
    65    32    64    1
