@<TRIPOS>MOLECULE
*****
 59 62 0 0 0
SMALL
GASTEIGER

@<TRIPOS>ATOM
      1  O          1.4128    0.3953    0.1614 O.2     1  LIG1       -0.2696
      2  O          0.7086   -4.5086    0.8653 O.co2   1  LIG1       -0.8475
      3  O         -0.6033   -3.8242   -0.8684 O.co2   1  LIG1       -0.3090
      4  N          5.1646    0.7829   -4.7320 N.ar    1  LIG1       -0.3294
      5  N          3.8203   -0.9340   -5.1390 N.ar    1  LIG1       -0.2307
      6  N         -0.1048   -0.7219   -1.1676 N.am    1  LIG1       -0.2517
      7  N          5.8737   -2.1010   -6.9662 N.pl3   1  LIG1       -0.3367
      8  N         -0.5905    0.3791   -3.2419 N.ar    1  LIG1       -0.2399
      9  N          8.7344   -4.2245  -12.3946 N.2     1  LIG1       -0.2855
     10  N          9.6933   -5.5169  -10.8586 N.pl3   1  LIG1       -0.0685
     11  C          4.1957    0.8337   -3.7583 C.ar    1  LIG1        0.0686
     12  C          4.9090   -0.3014   -5.5437 C.ar    1  LIG1        0.1277
     13  C          3.3748   -0.2621   -4.0200 C.ar    1  LIG1        0.0901
     14  C          5.7698   -0.6747   -6.7212 C.3     1  LIG1        0.0674
     15  C          2.0670    0.2905   -2.0554 C.ar    1  LIG1        0.0394
     16  C          2.2940   -0.5499   -3.1590 C.ar    1  LIG1       -0.0221
     17  C          3.9850    1.6940   -2.6798 C.ar    1  LIG1       -0.0353
     18  C          2.9120    1.3950   -1.8381 C.ar    1  LIG1       -0.0475
     19  C          6.2890    1.6805   -4.8519 C.3     1  LIG1        0.0136
     20  C          1.0799    0.0016   -0.9659 C.2     1  LIG1        0.2520
     21  C         -0.7703   -1.2084    0.0583 C.3     1  LIG1        0.0273
     22  C          6.5410   -2.6731   -8.0276 C.ar    1  LIG1        0.0275
     23  C         -0.0174   -2.2801    0.8361 C.3     1  LIG1        0.0123
     24  C         -0.8912   -0.6046   -2.3586 C.ar    1  LIG1        0.1277
     25  C          6.9813   -1.9471   -9.1400 C.ar    1  LIG1       -0.0400
     26  C          6.9029   -4.0242   -7.9572 C.ar    1  LIG1       -0.0400
     27  C         -2.0018   -1.4248   -2.5780 C.ar    1  LIG1       -0.0213
     28  C          7.7224   -2.5508  -10.1657 C.ar    1  LIG1       -0.0452
     29  C          7.6628   -4.6344   -8.9655 C.ar    1  LIG1       -0.0452
     30  C          8.0685   -3.9029  -10.0841 C.ar    1  LIG1        0.0647
     31  C          0.0432   -3.6614    0.2021 C.2     1  LIG1        0.0886
     32  C         -2.8386   -1.2068   -3.6732 C.ar    1  LIG1       -0.0571
     33  C         -1.3894    0.5433   -4.3216 C.ar    1  LIG1        0.0297
     34  C         -2.5279   -0.1999   -4.5683 C.ar    1  LIG1       -0.0435
     35  C          8.8513   -4.5533  -11.1664 C.cat   1  LIG1        0.3064
     36  H          5.3064   -2.6852   -6.3555 H       1  LIG1        0.1465
     37  H          9.3050   -4.7301  -13.0620 H       1  LIG1        0.3010
     38  H          8.0700   -3.5291  -12.7054 H       1  LIG1        0.3010
     39  H         10.2083   -5.9176  -11.6503 H       1  LIG1        0.3481
     40  H          5.3612   -0.1602   -7.5983 H       1  LIG1        0.0541
     41  H          6.7873   -0.2983   -6.5624 H       1  LIG1        0.0541
     42  H          1.6839   -1.4287   -3.3376 H       1  LIG1        0.0647
     43  H          4.6355    2.5322   -2.4614 H       1  LIG1        0.0639
     44  H          2.7544    2.0197   -0.9592 H       1  LIG1        0.0626
     45  H          6.2262    2.4765   -4.1076 H       1  LIG1        0.0456
     46  H          6.2785    2.1222   -5.8517 H       1  LIG1        0.0456
     47  H          7.2069    1.1090   -4.6907 H       1  LIG1        0.0456
     48  H         -1.7969   -1.5386   -0.1139 H       1  LIG1        0.0473
     49  H         -0.8791   -0.3337    0.7154 H       1  LIG1        0.0473
     50  H         -0.5346   -2.4140    1.7965 H       1  LIG1        0.0348
     51  H          1.0014   -1.9566    1.0741 H       1  LIG1        0.0348
     52  H          6.7428   -0.8931   -9.2394 H       1  LIG1        0.0636
     53  H          6.6168   -4.6173   -7.0909 H       1  LIG1        0.0636
     54  H         -2.2270   -2.2645   -1.9273 H       1  LIG1        0.0652
     55  H          8.0488   -1.9319  -10.9940 H       1  LIG1        0.0627
     56  H          7.9422   -5.6811   -8.8674 H       1  LIG1        0.0627
     57  H         -3.7108   -1.8373   -3.8181 H       1  LIG1        0.0619
     58  H         -1.0755    1.3240   -5.0071 H       1  LIG1        0.0830
     59  H         -3.1437   -0.0129   -5.4389 H       1  LIG1        0.0633
@<TRIPOS>BOND
     1     1    20    2
     2     2    31   ar
     3     3    31   ar
     4     4    11   ar
     5     4    12   ar
     6     4    19    1
     7     5    12   ar
     8     5    13   ar
     9     6    20   am
    10     6    21    1
    11     6    24    1
    12     7    14    1
    13     7    22    1
    14     7    36    1
    15     8    24   ar
    16     8    33   ar
    17     9    35    2
    18     9    37    1
    19     9    38    1
    20    10    35    1
    21    10    39    1
    22    11    13   ar
    23    11    17   ar
    24    12    14    1
    25    13    16   ar
    26    14    40    1
    27    14    41    1
    28    15    16   ar
    29    15    18   ar
    30    15    20    1
    31    16    42    1
    32    17    18   ar
    33    17    43    1
    34    18    44    1
    35    19    45    1
    36    19    46    1
    37    19    47    1
    38    21    23    1
    39    21    48    1
    40    21    49    1
    41    22    25   ar
    42    22    26   ar
    43    23    31    1
    44    23    50    1
    45    23    51    1
    46    24    27   ar
    47    25    28   ar
    48    25    52    1
    49    26    29   ar
    50    26    53    1
    51    27    32   ar
    52    27    54    1
    53    28    30   ar
    54    28    55    1
    55    29    30   ar
    56    29    56    1
    57    30    35    1
    58    32    34   ar
    59    32    57    1
    60    33    34   ar
    61    33    58    1
    62    34    59    1
