@<TRIPOS>MOLECULE
*****
 59 62 0 0 0
SMALL
GASTEIGER

@<TRIPOS>ATOM
      1 O           1.4752    0.4824    0.3089 O.2     1  LIG11      -0.2696
      2 O           0.3437   -4.6553   -0.1520 O.2     1  LIG11      -0.8475
      3 O          -1.7734   -3.8118   -0.1723 O.2     1  LIG11      -0.3090
      4 N           5.0204    0.7376   -4.8209 N.pl3   1  LIG11      -0.3294
      5 N           3.7012   -1.0350   -5.0104 N.pl3   1  LIG11      -0.2307
      6 N          -0.0293   -0.6196   -1.0708 N.am    1  LIG11      -0.2517
      7 N           6.2583   -1.9333   -6.6652 N.pl3   1  LIG11      -0.3367
      8 N          -0.4925    0.5756   -3.0864 N.pl3   1  LIG11      -0.2399
      9 N           8.4413   -4.2595  -12.3262 N.2     1  LIG11      -0.2855
     10 N           9.5871   -5.5053  -10.8801 N.pl3   1  LIG11      -0.0685
     11 C           4.1303    0.8294   -3.7761 C.3     1  LIG11       0.0686
     12 C           4.6919   -0.3690   -5.5731 C.3     1  LIG11       0.1277
     13 C           3.3434   -0.3136   -3.8974 C.3     1  LIG11       0.0901
     14 C           5.3891   -0.7715   -6.8407 C.3     1  LIG11       0.0674
     15 C           2.1364    0.3468   -1.9124 C.3     1  LIG11       0.0394
     16 C           2.3528   -0.5846   -2.9410 C.3     1  LIG11      -0.0221
     17 C           3.9536    1.7601   -2.7464 C.3     1  LIG11      -0.0353
     18 C           2.9379    1.4956   -1.8207 C.3     1  LIG11      -0.0475
     19 C           6.1305    1.6248   -5.0691 C.3     1  LIG11       0.0136
     20 C           1.1465    0.1010   -0.8196 C.2     1  LIG11       0.2520
     21 C          -0.7055   -1.2183    0.0930 C.3     1  LIG11       0.0273
     22 C           6.8055   -2.5466   -7.7982 C.3     1  LIG11       0.0275
     23 C          -0.0015   -2.4615    0.6233 C.3     1  LIG11       0.0123
     24 C          -0.7470   -0.4994   -2.2980 C.3     1  LIG11       0.1277
     25 C           7.1755   -1.8400   -8.9490 C.3     1  LIG11      -0.0400
     26 C           7.1512   -3.9036   -7.7305 C.3     1  LIG11      -0.0400
     27 C          -1.6976   -1.4463   -2.6737 C.3     1  LIG11      -0.0213
     28 C           7.7983   -2.4808  -10.0293 C.3     1  LIG11      -0.0452
     29 C           7.7736   -4.5533   -8.8034 C.3     1  LIG11      -0.0452
     30 C           8.0881   -3.8476   -9.9661 C.3     1  LIG11       0.0647
     31 C          -0.5282   -3.7615    0.0347 C.3     1  LIG11       0.0886
     32 C          -2.3955   -1.2942   -3.8722 C.3     1  LIG11      -0.0571
     33 C          -1.1790    0.7006   -4.2433 C.3     1  LIG11       0.0297
     34 C          -2.1350   -0.1971   -4.6761 C.3     1  LIG11      -0.0435
     35 C           8.7194   -4.5435  -11.1144 C.2     1  LIG11       0.3064
     36 H           5.7904   -2.6122   -6.0599 H       1  LIG11       0.1465
     37 H           8.9116   -4.7977  -13.0449 H       1  LIG11       0.3010
     38 H           7.7445   -3.5683  -12.5704 H       1  LIG11       0.3010
     39 H           9.9875   -5.9456  -11.7155 H       1  LIG11       0.3481
     40 H           4.6127   -0.9998   -7.5827 H       1  LIG11       0.0541
     41 H           5.9666    0.0731   -7.2307 H       1  LIG11       0.0541
     42 H           1.7778   -1.5013   -3.0107 H       1  LIG11       0.0647
     43 H           4.5707    2.6453   -2.6486 H       1  LIG11       0.0639
     44 H           2.7772    2.1899   -0.9971 H       1  LIG11       0.0626
     45 H           6.2679    2.3063   -4.2273 H       1  LIG11       0.0456
     46 H           5.9184    2.1969   -5.9757 H       1  LIG11       0.0456
     47 H           7.0369    1.0260   -5.1926 H       1  LIG11       0.0456
     48 H          -1.7713   -1.3744   -0.0986 H       1  LIG11       0.0473
     49 H          -0.6831   -0.4615    0.8889 H       1  LIG11       0.0473
     50 H          -0.1847   -2.5338    1.7032 H       1  LIG11       0.0348
     51 H           1.0843   -2.3957    0.4884 H       1  LIG11       0.0348
     52 H           7.0091   -0.7702   -9.0200 H       1  LIG11       0.0636
     53 H           6.9353   -4.4783   -6.8322 H       1  LIG11       0.0636
     54 H          -1.8904   -2.3302   -2.0745 H       1  LIG11       0.0652
     55 H           8.0913   -1.8828  -10.8855 H       1  LIG11       0.0627
     56 H           8.0180   -5.6104   -8.7238 H       1  LIG11       0.0627
     57 H          -3.1258   -2.0427   -4.1656 H       1  LIG11       0.0619
     58 H          -0.9260    1.5762   -4.8326 H       1  LIG11       0.0830
     59 H          -2.6554   -0.0520   -5.6144 H       1  LIG11       0.0633
@<TRIPOS>UNITY_ATOM_ATTR
2 1
charge -1
@<TRIPOS>BOND
     1     1    20    2
     2     2    31    1
     3     3    31    2
     4     4    11   ar
     5     4    12   ar
     6     4    19    1
     7     5    12   ar
     8     5    13   ar
     9     6    20   am
    10     6    21    1
    11     6    24    1
    12     7    14    1
    13     7    22    1
    14     7    36    1
    15     8    24   ar
    16     8    33   ar
    17     9    35    2
    18     9    37    1
    19     9    38    1
    20    10    35    1
    21    10    39    1
    22    11    13   ar
    23    11    17   ar
    24    12    14    1
    25    13    16   ar
    26    14    40    1
    27    14    41    1
    28    15    16   ar
    29    15    18   ar
    30    15    20    1
    31    16    42    1
    32    17    18   ar
    33    17    43    1
    34    18    44    1
    35    19    45    1
    36    19    46    1
    37    19    47    1
    38    21    23    1
    39    21    48    1
    40    21    49    1
    41    22    25   ar
    42    22    26   ar
    43    23    31    1
    44    23    50    1
    45    23    51    1
    46    24    27   ar
    47    25    28   ar
    48    25    52    1
    49    26    29   ar
    50    26    53    1
    51    27    32   ar
    52    27    54    1
    53    28    30   ar
    54    28    55    1
    55    29    30   ar
    56    29    56    1
    57    30    35    1
    58    32    34   ar
    59    32    57    1
    60    33    34   ar
    61    33    58    1
    62    34    59    1
