# created with PyMOL 1.8.4.0
@<TRIPOS>MOLECULE
102109980
54 57 1                 
SMALL
USER_CHARGES
@<TRIPOS>ATOM
1	   O	0.386	-0.858	-0.298	O.3	1	UNK0	0.000	
2	   O	1.000	1.000	1.000	O.3	1	UNK0	0.000	
3	   O	-3.022	-1.396	2.036	O.3	1	UNK0	0.000	
4	   O	-2.231	-3.384	0.202	O.3	1	UNK0	0.000	
5	   O	-1.021	0.418	2.858	O.3	1	UNK0	0.000	
6	   O	-0.717	-3.920	-1.934	O.3	1	UNK0	0.000	
7	   O	0.268	-2.109	-2.626	O.co2	1	UNK0	0.000	
8	   O	2.362	3.368	0.994	O.3	1	UNK0	0.000	
9	   O	4.537	-2.619	1.007	O.3	1	UNK0	0.000	
10	   O	8.458	-2.434	0.998	O.2	1	UNK0	0.000	
11	   O	8.584	-5.204	0.999	O.3	1	UNK0	0.000	
12	   O	4.478	-7.380	1.019	O.3	1	UNK0	0.000	
13	   C	-1.681	-1.510	1.577	C.3	1	UNK0	0.000	
14	   C	-1.653	-2.087	0.171	C.3	1	UNK0	0.000	
15	   C	-1.024	-0.140	1.551	C.3	1	UNK0	0.000	
16	   C	-0.213	-2.147	-0.315	C.3	1	UNK0	0.000	
17	   C	0.388	-0.282	1.003	C.3	1	UNK0	0.000	
18	   C	-0.206	-2.733	-1.717	C.2	1	UNK0	0.000	
19	   C	2.350	1.000	1.000	C.2	1	UNK0	0.000	
20	   C	3.036	-0.210	1.003	C.2	1	UNK0	0.000	
21	   C	3.046	2.204	0.996	C.2	1	UNK0	0.000	
22	   C	4.426	-0.191	1.001	C.2	1	UNK0	0.000	
23	   C	4.437	2.215	0.994	C.2	1	UNK0	0.000	
24	   C	5.130	1.009	0.996	C.2	1	UNK0	0.000	
25	   C	5.152	-1.445	1.003	C.2	1	UNK0	0.000	
26	   C	6.516	-1.348	1.000	C.2	1	UNK0	0.000	
27	   C	6.574	-3.826	1.005	C.2	1	UNK0	0.000	
28	   C	5.182	-3.778	1.008	C.2	1	UNK0	0.000	
29	   C	7.244	-2.565	1.001	C.2	1	UNK0	0.000	
30	   C	7.238	-5.062	1.006	C.2	1	UNK0	0.000	
31	   C	4.489	-4.985	1.013	C.2	1	UNK0	0.000	
32	   C	3.158	4.545	0.990	C.3	1	UNK0	0.000	
33	   C	5.151	-6.210	1.014	C.2	1	UNK0	0.000	
34	   C	6.539	-6.262	1.010	C.2	1	UNK0	0.000	
35	   H	-1.171	-2.111	2.192	 H	1	UNK0	0.000	
36	   H	-2.185	-1.500	-0.440	 H	1	UNK0	0.000	
37	   H	-1.547	0.459	0.945	 H	1	UNK0	0.000	
38	   H	0.306	-2.751	0.290	 H	1	UNK0	0.000	
39	   H	0.907	-0.880	1.614	 H	1	UNK0	0.000	
40	   H	-3.448	-2.301	2.051	 H	1	UNK0	0.000	
41	   H	-3.176	-3.319	0.524	 H	1	UNK0	0.000	
42	   H	-1.961	0.498	3.188	 H	1	UNK0	0.000	
43	   H	2.538	-1.077	1.006	 H	1	UNK0	0.000	
44	   H	-1.111	-4.440	-1.176	 H	1	UNK0	0.000	
45	   H	4.935	3.083	0.990	 H	1	UNK0	0.000	
46	   H	6.130	1.005	0.994	 H	1	UNK0	0.000	
47	   H	6.978	-0.461	0.998	 H	1	UNK0	0.000	
48	   H	3.489	-4.972	1.015	 H	1	UNK0	0.000	
49	   H	2.563	5.349	0.989	 H	1	UNK0	0.000	
50	   H	3.736	4.559	1.806	 H	1	UNK0	0.000	
51	   H	3.734	4.555	0.173	 H	1	UNK0	0.000	
52	   H	7.021	-7.139	1.011	 H	1	UNK0	0.000	
53	   H	8.990	-6.118	1.000	 H	1	UNK0	0.000	
54	   H	4.979	-8.245	1.020	 H	1	UNK0	0.000	
@<TRIPOS>BOND
1 1 16 1
2 1 17 1
3 2 17 1
4 2 19 1
5 3 13 1
6 3 40 1
7 4 14 1
8 4 41 1
9 5 15 1
10 5 42 1
11 6 18 1
12 6 44 1
13 7 18 2
14 8 21 1
15 8 32 1
16 9 25 1
17 9 28 1
18 10 29 2
19 11 30 1
20 11 53 1
21 12 33 1
22 12 54 1
23 13 14 1
24 13 15 1
25 13 35 1
26 14 16 1
27 14 36 1
28 15 17 1
29 15 37 1
30 16 18 1
31 16 38 1
32 17 39 1
33 19 20 1
34 19 21 2
35 20 22 2
36 20 43 1
37 21 23 1
38 22 24 1
39 22 25 1
40 23 24 2
41 23 45 1
42 24 46 1
43 25 26 2
44 26 29 1
45 26 47 1
46 27 28 1
47 27 29 1
48 27 30 2
49 28 31 2
50 30 34 1
51 31 33 1
52 31 48 1
53 32 49 1
54 32 50 1
55 32 51 1
56 33 34 2
57 34 52 1
@<TRIPOS>SUBSTRUCTURE
1	UNK0	1	GROUP	1 ****	UNK
