@<TRIPOS>MOLECULE
102109980
 54 57 0 0 0
SMALL
USER_CHARGES

@<TRIPOS>ATOM
      1 O           0.3640   -0.8799   -0.2452 O.3     1  UNK01       0.0000
      2 O           1.0458    0.9531    1.0331 O.2     1  UNK01       0.0000
      3 O          -3.1809   -1.2970    1.8577 O.3     1  UNK01       0.0000
      4 O          -2.2375   -3.4442    0.2041 O.3     1  UNK01       0.0000
      5 O          -1.1202    0.3568    2.9146 O.3     1  UNK01       0.0000
      6 O          -0.7659   -3.9413   -1.8758 O.3     1  UNK01       0.0000
      7 O           0.4360   -2.2142   -2.6750 O.2     1  UNK01       0.0000
      8 O           2.2261    3.3095    1.0463 O.2     1  UNK01       0.0000
      9 O           4.6818   -2.5919    0.9880 O.2     1  UNK01       0.0000
     10 O           8.7459   -2.6426    1.0080 O.2     1  UNK01       0.0000
     11 O           8.6591   -5.3600    1.0050 O.2     1  UNK01       0.0000
     12 O           4.2850   -7.2862    1.0292 O.2     1  UNK01       0.0000
     13 C          -1.7963   -1.4618    1.5110 C.3     1  UNK01       0.0000
     14 C          -1.6934   -2.1105    0.1304 C.3     1  UNK01       0.0000
     15 C          -1.0776   -0.1087    1.5565 C.3     1  UNK01       0.0000
     16 C          -0.2294   -2.1704   -0.3119 C.3     1  UNK01       0.0000
     17 C           0.3735   -0.3087    1.0656 C.3     1  UNK01       0.0000
     18 C          -0.1507   -2.7359   -1.7410 C.2     1  UNK01       0.0000
     19 C           2.4230    0.9495    0.9897 C.2     1  UNK01       0.0000
     20 C           3.2169   -0.2124    0.9335 C.2     1  UNK01       0.0000
     21 C           3.0470    2.2094    1.0163 C.2     1  UNK01       0.0000
     22 C           4.6237   -0.1624    0.9566 C.2     1  UNK01       0.0000
     23 C           4.4407    2.2757    1.0170 C.2     1  UNK01       0.0000
     24 C           5.2129    1.1088    0.9975 C.2     1  UNK01       0.0000
     25 C           5.4305   -1.4199    0.9592 C.2     1  UNK01       0.0000
     26 C           6.7710   -1.4218    0.9543 C.2     1  UNK01       0.0000
     27 C           6.7251   -3.9283    0.9956 C.2     1  UNK01       0.0000
     28 C           5.3341   -3.8024    0.9960 C.2     1  UNK01       0.0000
     29 C           7.5234   -2.6868    0.9856 C.2     1  UNK01       0.0000
     30 C           7.3020   -5.2071    1.0049 C.2     1  UNK01       0.0000
     31 C           4.5257   -4.9415    1.0074 C.2     1  UNK01       0.0000
     32 C           2.8498    4.5873    1.0029 C.3     1  UNK01       0.0000
     33 C           5.1125   -6.2023    1.0167 C.2     1  UNK01       0.0000
     34 C           6.4962   -6.3486    1.0149 C.2     1  UNK01       0.0000
     35 H          -1.3706   -2.1266    2.2754 H       1  UNK01       0.0000
     36 H          -2.2986   -1.5531   -0.5955 H       1  UNK01       0.0000
     37 H          -1.5981    0.6346    0.9407 H       1  UNK01       0.0000
     38 H           0.3527   -2.8581    0.3154 H       1  UNK01       0.0000
     39 H           0.8705   -0.9755    1.7830 H       1  UNK01       0.0000
     40 H          -3.4324   -2.0600    2.4107 H       1  UNK01       0.0000
     41 H          -3.1946   -3.3263    0.3790 H       1  UNK01       0.0000
     42 H          -2.0650    0.4952    3.1167 H       1  UNK01       0.0000
     43 H           2.7463   -1.1864    0.8630 H       1  UNK01       0.0000
     44 H          -1.2754   -4.1960   -1.0699 H       1  UNK01       0.0000
     45 H           4.9699    3.2224    1.0416 H       1  UNK01       0.0000
     46 H           6.2908    1.2393    1.0155 H       1  UNK01       0.0000
     47 H           7.3933   -0.5392    0.9368 H       1  UNK01       0.0000
     48 H           3.4437   -4.8491    1.0059 H       1  UNK01       0.0000
     49 H           2.0638    5.3482    0.9942 H       1  UNK01       0.0000
     50 H           3.4638    4.7556    1.8944 H       1  UNK01       0.0000
     51 H           3.4405    4.7114    0.0885 H       1  UNK01       0.0000
     52 H           6.9445   -7.3363    1.0229 H       1  UNK01       0.0000
     53 H           8.9051   -6.2974    0.9876 H       1  UNK01       0.0000
     54 H           4.8185   -8.0983    1.0002 H       1  UNK01       0.0000
@<TRIPOS>BOND
     1     1    16    1
     2     1    17    1
     3     2    17    1
     4     2    19    1
     5     3    13    1
     6     3    40    1
     7     4    14    1
     8     4    41    1
     9     5    15    1
    10     5    42    1
    11     6    18    1
    12     6    44    1
    13     7    18    2
    14     8    21    1
    15     8    32    1
    16     9    25    1
    17     9    28    1
    18    10    29    2
    19    11    30    1
    20    11    53    1
    21    12    33    1
    22    12    54    1
    23    13    14    1
    24    13    15    1
    25    13    35    1
    26    14    16    1
    27    14    36    1
    28    15    17    1
    29    15    37    1
    30    16    18    1
    31    16    38    1
    32    17    39    1
    33    19    20    1
    34    19    21    2
    35    20    22    2
    36    20    43    1
    37    21    23    1
    38    22    24    1
    39    22    25    1
    40    23    24    2
    41    23    45    1
    42    24    46    1
    43    25    26    2
    44    26    29    1
    45    26    47    1
    46    27    28    1
    47    27    29    1
    48    27    30    2
    49    28    31    2
    50    30    34    1
    51    31    33    1
    52    31    48    1
    53    32    49    1
    54    32    50    1
    55    32    51    1
    56    33    34    2
    57    34    52    1
