# created with PyMOL 1.8.4.0
@<TRIPOS>MOLECULE
10621
77 81 1                 
SMALL
USER_CHARGES
@<TRIPOS>ATOM
1	   O	1.390	2.003	0.040	O.3	1	UNK0	0.000	
2	   O	3.511	3.497	1.166	O.3	1	UNK0	0.000	
3	   O	4.620	3.634	-0.857	O.3	1	UNK0	0.000	
4	   O	2.852	-0.419	2.388	O.3	1	UNK0	0.000	
5	   O	-0.648	1.984	-1.125	O.3	1	UNK0	0.000	
6	   O	0.761	-1.931	1.234	O.3	1	UNK0	0.000	
7	   O	-1.325	-0.485	0.019	O.3	1	UNK0	0.000	
8	   O	2.445	6.063	0.854	O.3	1	UNK0	0.000	
9	   O	1.825	6.346	-1.750	O.3	1	UNK0	0.000	
10	   O	4.133	6.022	-3.634	O.3	1	UNK0	0.000	
11	   O	-1.176	6.041	1.286	O.3	1	UNK0	0.000	
12	   O	-2.986	5.468	-3.135	O.3	1	UNK0	0.000	
13	   O	-3.578	7.603	-1.397	O.2	1	UNK0	0.000	
14	   O	-6.844	5.685	3.782	O.3	1	UNK0	0.000	
15	   O	-5.978	4.561	1.447	O.3	1	UNK0	0.000	
16	   C	2.109	1.548	1.179	C.3	1	UNK0	0.000	
17	   C	2.166	0.029	1.227	C.3	1	UNK0	0.000	
18	   C	0.744	-0.510	1.239	C.3	1	UNK0	0.000	
19	   C	0.011	-0.002	0.008	C.3	1	UNK0	0.000	
20	   C	3.425	5.600	-0.064	C.3	1	UNK0	0.000	
21	   C	3.482	4.081	-0.128	C.3	1	UNK0	0.000	
22	   C	3.204	6.199	-1.445	C.3	1	UNK0	0.000	
23	   C	3.797	5.260	-2.484	C.3	1	UNK0	0.000	
24	   C	0.052	1.518	0.020	C.3	1	UNK0	0.000	
25	   C	3.534	2.077	1.159	C.3	1	UNK0	0.000	
26	   C	4.995	4.535	-1.892	C.3	1	UNK0	0.000	
27	   C	5.675	3.728	-2.986	C.3	1	UNK0	0.000	
28	   C	-1.113	3.246	-1.047	C.2	1	UNK0	0.000	
29	   C	-0.902	4.009	0.096	C.2	1	UNK0	0.000	
30	   C	-1.406	5.300	0.178	C.2	1	UNK0	0.000	
31	   C	-1.811	3.739	-2.140	C.2	1	UNK0	0.000	
32	   C	-2.128	5.806	-0.898	C.2	1	UNK0	0.000	
33	   C	-1.896	7.233	1.576	C.3	1	UNK0	0.000	
34	   C	-2.097	8.081	0.334	C.3	1	UNK0	0.000	
35	   C	-2.314	5.032	-2.047	C.2	1	UNK0	0.000	
36	   C	-2.652	7.152	-0.733	C.2	1	UNK0	0.000	
37	   C	-3.230	6.818	2.175	C.2	1	UNK0	0.000	
38	   C	-3.994	5.862	1.516	C.2	1	UNK0	0.000	
39	   C	-3.669	7.394	3.364	C.2	1	UNK0	0.000	
40	   C	-5.214	5.485	2.067	C.2	1	UNK0	0.000	
41	   C	-4.891	7.014	3.911	C.2	1	UNK0	0.000	
42	   C	-5.658	6.057	3.255	C.2	1	UNK0	0.000	
43	   C	-7.204	6.330	4.995	C.3	1	UNK0	0.000	
44	   H	1.652	1.881	2.004	 H	1	UNK0	0.000	
45	   H	2.639	-0.309	0.414	 H	1	UNK0	0.000	
46	   H	0.274	-0.188	2.061	 H	1	UNK0	0.000	
47	   H	0.475	-0.337	-0.812	 H	1	UNK0	0.000	
48	   H	4.314	5.919	0.262	 H	1	UNK0	0.000	
49	   H	2.662	3.756	-0.599	 H	1	UNK0	0.000	
50	   H	3.657	7.089	-1.501	 H	1	UNK0	0.000	
51	   H	3.105	4.584	-2.737	 H	1	UNK0	0.000	
52	   H	-0.419	1.846	0.839	 H	1	UNK0	0.000	
53	   H	4.023	1.748	1.966	 H	1	UNK0	0.000	
54	   H	3.997	1.755	0.334	 H	1	UNK0	0.000	
55	   H	5.640	5.206	-1.528	 H	1	UNK0	0.000	
56	   H	5.950	4.339	-3.728	 H	1	UNK0	0.000	
57	   H	6.484	3.274	-2.611	 H	1	UNK0	0.000	
58	   H	5.040	3.040	-3.337	 H	1	UNK0	0.000	
59	   H	2.875	-1.419	2.396	 H	1	UNK0	0.000	
60	   H	1.244	-2.261	2.045	 H	1	UNK0	0.000	
61	   H	-1.318	-1.485	0.011	 H	1	UNK0	0.000	
62	   H	2.443	7.063	0.864	 H	1	UNK0	0.000	
63	   H	1.726	6.742	-2.663	 H	1	UNK0	0.000	
64	   H	4.525	5.420	-4.330	 H	1	UNK0	0.000	
65	   H	-0.385	3.626	0.862	 H	1	UNK0	0.000	
66	   H	-1.946	3.187	-2.963	 H	1	UNK0	0.000	
67	   H	-1.386	7.764	2.253	 H	1	UNK0	0.000	
68	   H	-2.745	8.820	0.521	 H	1	UNK0	0.000	
69	   H	-1.226	8.470	0.035	 H	1	UNK0	0.000	
70	   H	-3.673	5.453	0.662	 H	1	UNK0	0.000	
71	   H	-3.107	8.081	3.824	 H	1	UNK0	0.000	
72	   H	-3.089	4.871	-3.931	 H	1	UNK0	0.000	
73	   H	-5.212	7.423	4.765	 H	1	UNK0	0.000	
74	   H	-5.665	4.145	0.593	 H	1	UNK0	0.000	
75	   H	-8.092	5.989	5.303	 H	1	UNK0	0.000	
76	   H	-6.513	6.137	5.692	 H	1	UNK0	0.000	
77	   H	-7.259	7.317	4.844	 H	1	UNK0	0.000	
@<TRIPOS>BOND
1 1 16 1
2 1 24 1
3 2 21 1
4 2 25 1
5 3 21 1
6 3 26 1
7 4 17 1
8 4 59 1
9 5 24 1
10 5 28 1
11 6 18 1
12 6 60 1
13 7 19 1
14 7 61 1
15 8 20 1
16 8 62 1
17 9 22 1
18 9 63 1
19 10 23 1
20 10 64 1
21 11 30 1
22 11 33 1
23 12 35 1
24 12 72 1
25 13 36 2
26 14 42 1
27 14 43 1
28 15 40 1
29 15 74 1
30 16 17 1
31 16 25 1
32 16 44 1
33 17 18 1
34 17 45 1
35 18 19 1
36 18 46 1
37 19 24 1
38 19 47 1
39 20 21 1
40 20 22 1
41 20 48 1
42 21 49 1
43 22 23 1
44 22 50 1
45 23 26 1
46 23 51 1
47 24 52 1
48 25 53 1
49 25 54 1
50 26 27 1
51 26 55 1
52 27 56 1
53 27 57 1
54 27 58 1
55 28 29 1
56 28 31 2
57 29 30 2
58 29 65 1
59 30 32 1
60 31 35 1
61 31 66 1
62 32 35 2
63 32 36 1
64 33 34 1
65 33 37 1
66 33 67 1
67 34 36 1
68 34 68 1
69 34 69 1
70 37 38 2
71 37 39 1
72 38 40 1
73 38 70 1
74 39 41 2
75 39 71 1
76 40 42 2
77 41 42 1
78 41 73 1
79 43 75 1
80 43 76 1
81 43 77 1
@<TRIPOS>SUBSTRUCTURE
1	UNK0	1	GROUP	1 ****	UNK
