@<TRIPOS>MOLECULE
10621
 77 81 0 0 0
SMALL
USER_CHARGES

@<TRIPOS>ATOM
      1 O           1.4459    1.7914    0.0606 O.3     1  UNK01       0.0000
      2 O           3.6333    3.3709    1.2026 O.3     1  UNK01       0.0000
      3 O           4.6205    3.7199   -0.8856 O.3     1  UNK01       0.0000
      4 O           2.9090   -0.6601    2.3924 O.3     1  UNK01       0.0000
      5 O          -0.5818    1.8995   -1.0786 O.2     1  UNK01       0.0000
      6 O           0.8600   -2.1767    1.0746 O.3     1  UNK01       0.0000
      7 O          -1.3295   -0.6516    0.1138 O.3     1  UNK01       0.0000
      8 O           2.2326    5.8771    1.0338 O.3     1  UNK01       0.0000
      9 O           1.7830    6.5621   -1.4138 O.3     1  UNK01       0.0000
     10 O           4.0262    6.3944   -3.4118 O.3     1  UNK01       0.0000
     11 O          -1.1475    6.1185    1.1103 O.2     1  UNK01       0.0000
     12 O          -2.8087    5.3390   -3.3812 O.2     1  UNK01       0.0000
     13 O          -3.1835    7.6869   -2.0897 O.2     1  UNK01       0.0000
     14 O          -6.8520    5.8495    4.0396 O.2     1  UNK01       0.0000
     15 O          -6.2701    4.7032    1.6963 O.2     1  UNK01       0.0000
     16 C           2.1945    1.3592    1.2022 C.3     1  UNK01       0.0000
     17 C           2.2434   -0.1784    1.2233 C.3     1  UNK01       0.0000
     18 C           0.8209   -0.7438    1.1906 C.3     1  UNK01       0.0000
     19 C           0.0197   -0.1690    0.0192 C.3     1  UNK01       0.0000
     20 C           3.3357    5.5488    0.1763 C.3     1  UNK01       0.0000
     21 C           3.4867    4.0297   -0.0614 C.3     1  UNK01       0.0000
     22 C           3.1791    6.2850   -1.1664 C.3     1  UNK01       0.0000
     23 C           3.7384    5.4819   -2.3511 C.3     1  UNK01       0.0000
     24 C           0.0814    1.3689    0.0769 C.3     1  UNK01       0.0000
     25 C           3.6187    1.9414    1.1156 C.3     1  UNK01       0.0000
     26 C           4.9609    4.6854   -1.8843 C.3     1  UNK01       0.0000
     27 C           5.6360    3.9261   -3.0220 C.3     1  UNK01       0.0000
     28 C          -0.9758    3.2090   -1.0367 C.2     1  UNK01       0.0000
     29 C          -0.7825    4.0962    0.0194 C.2     1  UNK01       0.0000
     30 C          -1.3190    5.3881   -0.0329 C.2     1  UNK01       0.0000
     31 C          -1.6556    3.6484   -2.1744 C.2     1  UNK01       0.0000
     32 C          -1.9932    5.8342   -1.1710 C.2     1  UNK01       0.0000
     33 C          -2.0168    7.2426    1.2841 C.3     1  UNK01       0.0000
     34 C          -2.1789    8.0708    0.0212 C.3     1  UNK01       0.0000
     35 C          -2.1532    4.9533   -2.2474 C.2     1  UNK01       0.0000
     36 C          -2.5311    7.2177   -1.1628 C.2     1  UNK01       0.0000
     37 C          -3.3109    6.8700    2.0047 C.2     1  UNK01       0.0000
     38 C          -4.2286    5.9376    1.4991 C.2     1  UNK01       0.0000
     39 C          -3.6110    7.4784    3.2364 C.2     1  UNK01       0.0000
     40 C          -5.3938    5.6252    2.2083 C.2     1  UNK01       0.0000
     41 C          -4.7822    7.1655    3.9417 C.2     1  UNK01       0.0000
     42 C          -5.6857    6.2331    3.4338 C.2     1  UNK01       0.0000
     43 C          -7.1996    6.4897    5.2578 C.3     1  UNK01       0.0000
     44 H           1.7175    1.7561    2.1078 H       1  UNK01       0.0000
     45 H           2.7988   -0.5467    0.3507 H       1  UNK01       0.0000
     46 H           0.3011   -0.5342    2.1349 H       1  UNK01       0.0000
     47 H           0.4194   -0.5319   -0.9357 H       1  UNK01       0.0000
     48 H           4.2463    5.9029    0.6750 H       1  UNK01       0.0000
     49 H           2.5844    3.6712   -0.5616 H       1  UNK01       0.0000
     50 H           3.6644    7.2659   -1.0923 H       1  UNK01       0.0000
     51 H           2.9611    4.8002   -2.7210 H       1  UNK01       0.0000
     52 H          -0.4293    1.6961    0.9924 H       1  UNK01       0.0000
     53 H           4.2086    1.5818    1.9653 H       1  UNK01       0.0000
     54 H           4.1241    1.6055    0.2029 H       1  UNK01       0.0000
     55 H           5.7070    5.3667   -1.4560 H       1  UNK01       0.0000
     56 H           6.0261    4.6024   -3.7879 H       1  UNK01       0.0000
     57 H           6.4680    3.3246   -2.6391 H       1  UNK01       0.0000
     58 H           4.9353    3.2274   -3.4926 H       1  UNK01       0.0000
     59 H           3.2209   -1.5612    2.1906 H       1  UNK01       0.0000
     60 H           1.0855   -2.5161    1.9609 H       1  UNK01       0.0000
     61 H          -1.2530   -1.6249    0.1555 H       1  UNK01       0.0000
     62 H           1.4940    6.1024    0.4301 H       1  UNK01       0.0000
     63 H           1.7628    7.0464   -2.2635 H       1  UNK01       0.0000
     64 H           4.1872    5.8721   -4.2182 H       1  UNK01       0.0000
     65 H          -0.2397    3.8168    0.9177 H       1  UNK01       0.0000
     66 H          -1.7963    2.9528   -2.9976 H       1  UNK01       0.0000
     67 H          -1.4626    7.8886    1.9787 H       1  UNK01       0.0000
     68 H          -2.9476    8.8397    0.1568 H       1  UNK01       0.0000
     69 H          -1.2325    8.5666   -0.2278 H       1  UNK01       0.0000
     70 H          -4.0484    5.4363    0.5563 H       1  UNK01       0.0000
     71 H          -2.9286    8.2072    3.6715 H       1  UNK01       0.0000
     72 H          -2.8475    4.6071   -4.0170 H       1  UNK01       0.0000
     73 H          -4.9536    7.6668    4.8885 H       1  UNK01       0.0000
     74 H          -5.9502    4.4038    0.8315 H       1  UNK01       0.0000
     75 H          -8.1609    6.0829    5.5868 H       1  UNK01       0.0000
     76 H          -6.4639    6.2765    6.0401 H       1  UNK01       0.0000
     77 H          -7.3263    7.5680    5.1160 H       1  UNK01       0.0000
@<TRIPOS>BOND
     1     1    16    1
     2     1    24    1
     3     2    21    1
     4     2    25    1
     5     3    21    1
     6     3    26    1
     7     4    17    1
     8     4    59    1
     9     5    24    1
    10     5    28    1
    11     6    18    1
    12     6    60    1
    13     7    19    1
    14     7    61    1
    15     8    20    1
    16     8    62    1
    17     9    22    1
    18     9    63    1
    19    10    23    1
    20    10    64    1
    21    11    30    1
    22    11    33    1
    23    12    35    1
    24    12    72    1
    25    13    36    2
    26    14    42    1
    27    14    43    1
    28    15    40    1
    29    15    74    1
    30    16    17    1
    31    16    25    1
    32    16    44    1
    33    17    18    1
    34    17    45    1
    35    18    19    1
    36    18    46    1
    37    19    24    1
    38    19    47    1
    39    20    21    1
    40    20    22    1
    41    20    48    1
    42    21    49    1
    43    22    23    1
    44    22    50    1
    45    23    26    1
    46    23    51    1
    47    24    52    1
    48    25    53    1
    49    25    54    1
    50    26    27    1
    51    26    55    1
    52    27    56    1
    53    27    57    1
    54    27    58    1
    55    28    29    1
    56    28    31    2
    57    29    30    2
    58    29    65    1
    59    30    32    1
    60    31    35    1
    61    31    66    1
    62    32    35    2
    63    32    36    1
    64    33    34    1
    65    33    37    1
    66    33    67    1
    67    34    36    1
    68    34    68    1
    69    34    69    1
    70    37    38    2
    71    37    39    1
    72    38    40    1
    73    38    70    1
    74    39    41    2
    75    39    71    1
    76    40    42    2
    77    41    42    1
    78    41    73    1
    79    43    75    1
    80    43    76    1
    81    43    77    1
