@<TRIPOS>MOLECULE
*****
 76 80 0 0 0
SMALL
GASTEIGER

@<TRIPOS>ATOM
      1 CL         18.9494   -2.3939   -2.9138 Cl      1  LIG11      -0.0835
      2 S           8.4067  -10.5231    0.9905 S.3     1  LIG11      -0.1521
      3 O           6.6724  -12.3457    4.3337 O.2     1  LIG11      -0.8476
      4 O           8.2303  -12.6854    5.9715 O.2     1  LIG11      -0.3090
      5 O           6.2566   -6.0036   -5.3458 O.3     1  LIG11      -0.3845
      6 N          14.7288   -4.9789   -1.8985 N.pl3   1  LIG11      -0.2472
      7 C           9.5090  -11.1024    3.4326 C.3     1  LIG11      -0.0144
      8 C          10.4737  -10.5271    4.4563 C.3     1  LIG11      -0.0457
      9 C          10.9917  -10.9633    3.1196 C.3     1  LIG11      -0.0457
     10 C           8.5384  -10.1454    2.7702 C.3     1  LIG11       0.0003
     11 C           8.9612  -12.4983    3.7243 C.3     1  LIG11       0.0024
     12 C           7.8445  -12.5095    4.7806 C.3     1  LIG11       0.0876
     13 C           7.5203   -9.0073    0.4435 C.3     1  LIG11       0.0305
     14 C           6.8820   -9.2792   -0.9343 C.3     1  LIG11      -0.0331
     15 C           8.4375   -7.7914    0.4206 C.3     1  LIG11      -0.0339
     16 C           5.8628   -8.1910   -1.3204 C.3     1  LIG11      -0.0260
     17 C           9.7123   -7.8386   -0.1729 C.3     1  LIG11      -0.0504
     18 C           8.0171   -6.5837    0.9954 C.3     1  LIG11      -0.0575
     19 C           5.1805   -8.4652   -2.6477 C.3     1  LIG11      -0.0414
     20 C           5.3965   -7.7434   -3.8514 C.3     1  LIG11      -0.0135
     21 C          10.5665   -6.7274   -0.1703 C.3     1  LIG11      -0.0247
     22 C           8.8501   -5.4636    0.9839 C.3     1  LIG11      -0.0609
     23 C           6.2932   -6.4976   -3.9859 C.3     1  LIG11       0.0856
     24 C           4.2770   -9.5559   -2.6456 C.3     1  LIG11      -0.0582
     25 C          10.1224   -5.5375    0.4129 C.3     1  LIG11      -0.0546
     26 C           4.7298   -8.2165   -5.0109 C.3     1  LIG11      -0.0556
     27 C           3.6190   -9.9698   -3.7984 C.3     1  LIG11      -0.0615
     28 C          11.9344   -6.9033   -0.6780 C.2     1  LIG11      -0.0526
     29 C           5.8073   -5.3097   -3.1387 C.3     1  LIG11      -0.0321
     30 C           7.7717   -6.8099   -3.7399 C.3     1  LIG11      -0.0321
     31 C           3.8557   -9.3054   -4.9876 C.3     1  LIG11      -0.0614
     32 C          12.6479   -5.9631   -1.3187 C.2     1  LIG11      -0.0357
     33 C          14.0318   -6.1345   -1.7805 C.3     1  LIG11       0.0646
     34 C          14.5808   -7.3705   -2.0983 C.3     1  LIG11      -0.0357
     35 C          16.0113   -5.0346   -2.2969 C.3     1  LIG11       0.0730
     36 C          15.9072   -7.4283   -2.5139 C.3     1  LIG11      -0.0506
     37 C          16.6527   -6.2511   -2.6143 C.3     1  LIG11       0.0005
     38 C          16.7402   -3.8595   -2.3994 C.3     1  LIG11      -0.0174
     39 C          17.9985   -6.2638   -3.0181 C.3     1  LIG11      -0.0512
     40 C          18.0758   -3.8728   -2.8005 C.3     1  LIG11       0.0430
     41 C          18.7109   -5.0707   -3.1097 C.3     1  LIG11      -0.0427
     42 H           5.3732   -5.6203   -5.4790 H       1  LIG11       0.2106
     43 H          10.7033  -11.1350    5.3264 H       1  LIG11       0.0271
     44 H          10.4282   -9.4667    4.6733 H       1  LIG11       0.0271
     45 H          11.3029  -10.1936    2.4229 H       1  LIG11       0.0271
     46 H          11.5915  -11.8648    3.0757 H       1  LIG11       0.0271
     47 H           7.5472  -10.1930    3.2276 H       1  LIG11       0.0382
     48 H           8.8991   -9.1178    2.8836 H       1  LIG11       0.0382
     49 H           9.7673  -13.1583    4.0713 H       1  LIG11       0.0338
     50 H           8.5836  -12.9522    2.8004 H       1  LIG11       0.0338
     51 H           6.7138   -8.8488    1.1700 H       1  LIG11       0.0461
     52 H           7.6496   -9.3566   -1.7156 H       1  LIG11       0.0282
     53 H           6.3659  -10.2480   -0.9085 H       1  LIG11       0.0282
     54 H           6.3549   -7.2243   -1.3191 H       1  LIG11       0.0314
     55 H           5.0870   -8.1195   -0.5460 H       1  LIG11       0.0314
     56 H          10.0541   -8.7702   -0.6228 H       1  LIG11       0.0626
     57 H           7.0394   -6.5106    1.4676 H       1  LIG11       0.0621
     58 H           8.5176   -4.5373    1.4452 H       1  LIG11       0.0618
     59 H           4.0929  -10.1066   -1.7229 H       1  LIG11       0.0620
     60 H          10.7710   -4.6666    0.4591 H       1  LIG11       0.0623
     61 H           4.8944   -7.7451   -5.9778 H       1  LIG11       0.0621
     62 H           2.9421  -10.8185   -3.7649 H       1  LIG11       0.0618
     63 H          12.3587   -7.8838   -0.4741 H       1  LIG11       0.0624
     64 H           4.7511   -5.0950   -3.3432 H       1  LIG11       0.0260
     65 H           6.3616   -4.4000   -3.4010 H       1  LIG11       0.0260
     66 H           5.9094   -5.4504   -2.0629 H       1  LIG11       0.0260
     67 H           8.1082   -7.6300   -4.3855 H       1  LIG11       0.0260
     68 H           7.9910   -7.0851   -2.7081 H       1  LIG11       0.0260
     69 H           8.3973   -5.9444   -3.9899 H       1  LIG11       0.0260
     70 H           3.3683   -9.6312   -5.9021 H       1  LIG11       0.0618
     71 H          12.2332   -4.9767   -1.5063 H       1  LIG11       0.0639
     72 H          14.0009   -8.2844   -2.0298 H       1  LIG11       0.0639
     73 H          16.3472   -8.3929   -2.7533 H       1  LIG11       0.0625
     74 H          16.2518   -2.9196   -2.1568 H       1  LIG11       0.0653
     75 H          18.4951   -7.2010   -3.2592 H       1  LIG11       0.0625
     76 H          19.7522   -5.0826   -3.4196 H       1  LIG11       0.0632
@<TRIPOS>UNITY_ATOM_ATTR
3 1
charge -1
@<TRIPOS>BOND
     1     1    40    1
     2     2    10    1
     3     2    13    1
     4     3    12    1
     5     4    12    2
     6     5    23    1
     7     5    42    1
     8     6    33   ar
     9     6    35   ar
    10     7     8    1
    11     7     9    1
    12     7    10    1
    13     7    11    1
    14     8     9    1
    15     8    43    1
    16     8    44    1
    17     9    45    1
    18     9    46    1
    19    10    47    1
    20    10    48    1
    21    11    12    1
    22    11    49    1
    23    11    50    1
    24    13    15    1
    25    13    14    1
    26    13    51    1
    27    14    16    1
    28    14    52    1
    29    14    53    1
    30    15    17   ar
    31    15    18   ar
    32    16    19    1
    33    16    54    1
    34    16    55    1
    35    17    21   ar
    36    17    56    1
    37    18    22   ar
    38    18    57    1
    39    19    20   ar
    40    19    24   ar
    41    20    23    1
    42    20    26   ar
    43    21    25   ar
    44    21    28    1
    45    22    25   ar
    46    22    58    1
    47    23    29    1
    48    23    30    1
    49    24    27   ar
    50    24    59    1
    51    25    60    1
    52    26    31   ar
    53    26    61    1
    54    27    31   ar
    55    27    62    1
    56    28    32    2
    57    28    63    1
    58    29    64    1
    59    29    65    1
    60    29    66    1
    61    30    67    1
    62    30    68    1
    63    30    69    1
    64    31    70    1
    65    32    33    1
    66    32    71    1
    67    33    34   ar
    68    34    36   ar
    69    34    72    1
    70    35    37   ar
    71    35    38   ar
    72    36    37   ar
    73    36    73    1
    74    37    39   ar
    75    38    40   ar
    76    38    74    1
    77    39    41   ar
    78    39    75    1
    79    40    41   ar
    80    41    76    1
