@<TRIPOS>MOLECULE
*****
 76 80 0 0 0
SMALL
GASTEIGER

@<TRIPOS>ATOM
      1 CL         18.7578   -2.4586   -2.7816 Cl      1  LIG1       -0.0835
      2  S          8.3048  -10.4829    1.0998 S.3     1  LIG1       -0.1521
      3  O          7.0449  -12.4229    3.9550 O.co2   1  LIG1       -0.8476
      4  O          8.5079  -13.3400    5.4514 O.co2   1  LIG1       -0.3090
      5  O          6.1999   -5.9343   -5.3685 O.3     1  LIG1       -0.3845
      6  N         14.6225   -5.1802   -1.8903 N.ar    1  LIG1       -0.2472
      7  C          9.7638  -10.9832    3.4246 C.3     1  LIG1       -0.0144
      8  C         10.4770  -10.5154    4.6847 C.3     1  LIG1       -0.0457
      9  C         11.2472  -10.6365    3.4058 C.3     1  LIG1       -0.0457
     10  C          8.7759  -10.0062    2.7968 C.3     1  LIG1        0.0003
     11  C          9.3639  -12.4597    3.4288 C.3     1  LIG1        0.0024
     12  C          8.1894  -12.7708    4.3692 C.2     1  LIG1        0.0876
     13  C          7.4040   -8.9639    0.5558 C.3     1  LIG1        0.0305
     14  C          6.7175   -9.2679   -0.8004 C.3     1  LIG1       -0.0331
     15  C          8.3315   -7.7658    0.4352 C.ar    1  LIG1       -0.0339
     16  C          5.8276   -8.1140   -1.3184 C.3     1  LIG1       -0.0260
     17  C          9.6280   -7.8973   -0.0894 C.ar    1  LIG1       -0.0504
     18  C          7.8831   -6.4881    0.8009 C.ar    1  LIG1       -0.0575
     19  C          5.1603   -8.4057   -2.6536 C.ar    1  LIG1       -0.0414
     20  C          5.3750   -7.6861   -3.8623 C.ar    1  LIG1       -0.0135
     21  C         10.4769   -6.7982   -0.2172 C.ar    1  LIG1       -0.0247
     22  C          8.7086   -5.3765    0.6400 C.ar    1  LIG1       -0.0609
     23  C          6.2601   -6.4311   -4.0090 C.3     1  LIG1        0.0856
     24  C          4.2503   -9.4903   -2.6502 C.ar    1  LIG1       -0.0582
     25  C         10.0045   -5.5334    0.1468 C.ar    1  LIG1       -0.0546
     26  C          4.7109   -8.1658   -5.0219 C.ar    1  LIG1       -0.0556
     27  C          3.5942   -9.9083   -3.8032 C.ar    1  LIG1       -0.0615
     28  C         11.8577   -7.0453   -0.6434 C.2     1  LIG1       -0.0526
     29  C          5.7722   -5.2477   -3.1573 C.3     1  LIG1       -0.0321
     30  C          7.7469   -6.7223   -3.7856 C.3     1  LIG1       -0.0321
     31  C          3.8350   -9.2522   -4.9956 C.ar    1  LIG1       -0.0614
     32  C         12.5577   -6.1873   -1.3974 C.2     1  LIG1       -0.0357
     33  C         13.9604   -6.3531   -1.7706 C.ar    1  LIG1        0.0646
     34  C         14.5560   -7.5828   -2.0150 C.ar    1  LIG1       -0.0357
     35  C         15.9169   -5.2051   -2.2269 C.ar    1  LIG1        0.0730
     36  C         15.9000   -7.6073   -2.3767 C.ar    1  LIG1       -0.0506
     37  C         16.6103   -6.4058   -2.4862 C.ar    1  LIG1        0.0005
     38  C         16.5964   -4.0034   -2.3220 C.ar    1  LIG1       -0.0174
     39  C         17.9687   -6.3703   -2.8422 C.ar    1  LIG1       -0.0512
     40  C         17.9430   -3.9705   -2.6723 C.ar    1  LIG1        0.0430
     41  C         18.6342   -5.1488   -2.9353 C.ar    1  LIG1       -0.0427
     42  H          5.3015   -5.5868   -5.4992 H       1  LIG1        0.2106
     43  H         10.6500  -11.2516    5.4661 H       1  LIG1        0.0271
     44  H         10.2490   -9.5299    5.0719 H       1  LIG1        0.0271
     45  H         11.5720   -9.7160    2.9358 H       1  LIG1        0.0271
     46  H         11.9669  -11.4442    3.3317 H       1  LIG1        0.0271
     47  H          7.8817   -9.9163    3.4199 H       1  LIG1        0.0382
     48  H          9.2434   -9.0159    2.7553 H       1  LIG1        0.0382
     49  H         10.2219  -13.0757    3.7311 H       1  LIG1        0.0338
     50  H          9.1156  -12.8034    2.4190 H       1  LIG1        0.0338
     51  H          6.6324   -8.7679    1.3105 H       1  LIG1        0.0461
     52  H          7.4699   -9.5005   -1.5664 H       1  LIG1        0.0282
     53  H          6.1006  -10.1684   -0.6845 H       1  LIG1        0.0282
     54  H          6.4260   -7.2131   -1.3897 H       1  LIG1        0.0314
     55  H          5.0424   -7.8923   -0.5839 H       1  LIG1        0.0314
     56  H          9.9896   -8.8803   -0.3891 H       1  LIG1        0.0626
     57  H          6.8795   -6.3508    1.1982 H       1  LIG1        0.0621
     58  H          8.3495   -4.3883    0.9134 H       1  LIG1        0.0618
     59  H          4.0534  -10.0326   -1.7258 H       1  LIG1        0.0620
     60  H         10.6466   -4.6601    0.0712 H       1  LIG1        0.0623
     61  H          4.8761   -7.6995   -5.9913 H       1  LIG1        0.0621
     62  H          2.9134  -10.7537   -3.7662 H       1  LIG1        0.0618
     63  H         12.2957   -7.9737   -0.2831 H       1  LIG1        0.0624
     64  H          4.7140   -5.0377   -3.3572 H       1  LIG1        0.0260
     65  H          6.3192   -4.3339   -3.4218 H       1  LIG1        0.0260
     66  H          5.8813   -5.3943   -2.0826 H       1  LIG1        0.0260
     67  H          8.0822   -7.5463   -4.4265 H       1  LIG1        0.0260
     68  H          7.9911   -6.9808   -2.7548 H       1  LIG1        0.0260
     69  H          8.3558   -5.8519   -4.0606 H       1  LIG1        0.0260
     70  H          3.3476   -9.5801   -5.9092 H       1  LIG1        0.0618
     71  H         12.1167   -5.2551   -1.7378 H       1  LIG1        0.0639
     72  H         13.9968   -8.5092   -1.9356 H       1  LIG1        0.0639
     73  H         16.3820   -8.5623   -2.5693 H       1  LIG1        0.0625
     74  H         16.0584   -3.0820   -2.1151 H       1  LIG1        0.0653
     75  H         18.5109   -7.2905   -3.0464 H       1  LIG1        0.0625
     76  H         19.6847   -5.1227   -3.2102 H       1  LIG1        0.0632
@<TRIPOS>BOND
     1     1    40    1
     2     2    10    1
     3     2    13    1
     4     3    12   ar
     5     4    12   ar
     6     5    23    1
     7     5    42    1
     8     6    33   ar
     9     6    35   ar
    10     7     8    1
    11     7     9    1
    12     7    10    1
    13     7    11    1
    14     8     9    1
    15     8    43    1
    16     8    44    1
    17     9    45    1
    18     9    46    1
    19    10    47    1
    20    10    48    1
    21    11    12    1
    22    11    49    1
    23    11    50    1
    24    13    15    1
    25    13    14    1
    26    13    51    1
    27    14    16    1
    28    14    52    1
    29    14    53    1
    30    15    17   ar
    31    15    18   ar
    32    16    19    1
    33    16    54    1
    34    16    55    1
    35    17    21   ar
    36    17    56    1
    37    18    22   ar
    38    18    57    1
    39    19    20   ar
    40    19    24   ar
    41    20    23    1
    42    20    26   ar
    43    21    25   ar
    44    21    28    1
    45    22    25   ar
    46    22    58    1
    47    23    29    1
    48    23    30    1
    49    24    27   ar
    50    24    59    1
    51    25    60    1
    52    26    31   ar
    53    26    61    1
    54    27    31   ar
    55    27    62    1
    56    28    32    2
    57    28    63    1
    58    29    64    1
    59    29    65    1
    60    29    66    1
    61    30    67    1
    62    30    68    1
    63    30    69    1
    64    31    70    1
    65    32    33    1
    66    32    71    1
    67    33    34   ar
    68    34    36   ar
    69    34    72    1
    70    35    37   ar
    71    35    38   ar
    72    36    37   ar
    73    36    73    1
    74    37    39   ar
    75    38    40   ar
    76    38    74    1
    77    39    41   ar
    78    39    75    1
    79    40    41   ar
    80    41    76    1
