@<TRIPOS>MOLECULE
*****
 65 67 0 0 0
SMALL
GASTEIGER

@<TRIPOS>ATOM
      1  O          0.8697   -0.1400   -0.1557 O.3     1  LIG1       -0.4559
      2  O         -3.4282    4.0056   -1.6615 O.3     1  LIG1       -0.4646
      3  O          0.6912    1.9722   -0.9759 O.2     1  LIG1       -0.2452
      4  O         -5.4870    3.2832   -0.9713 O.2     1  LIG1       -0.2452
      5  O         -2.0793    6.7473    1.7801 O.co2   1  LIG1       -0.5760
      6  O         -1.5197    6.4968    3.8883 O.2     1  LIG1        0.0414
      7  N         -3.3417   -0.4272   -0.3247 N.pl3   1  LIG1       -0.3207
      8  N          3.6302    1.4325    1.8901 N.4     1  LIG1        0.2387
      9  N         -1.7867    6.0532    2.7626 N.pl3   1  LIG1        0.0796
     10  C         -2.0508    2.0603   -0.3171 C.3     1  LIG1        0.0508
     11  C         -1.2898    0.7355   -0.4896 C.2     1  LIG1        0.0652
     12  C         -3.5332    1.9168   -0.6412 C.2     1  LIG1        0.0651
     13  C         -1.8386    2.6564    1.0971 C.ar    1  LIG1       -0.0287
     14  C         -1.9573   -0.4419   -0.4369 C.2     1  LIG1        0.0157
     15  C         -4.1166    0.6953   -0.6013 C.2     1  LIG1        0.0157
     16  C          0.1699    0.9144   -0.6500 C.2     1  LIG1        0.3377
     17  C         -1.8723    4.0506    1.2873 C.ar    1  LIG1        0.0197
     18  C         -1.6528    1.8414    2.2336 C.ar    1  LIG1       -0.0572
     19  C         -1.3157   -1.8037   -0.5029 C.3     1  LIG1       -0.0260
     20  C         -4.2855    3.1241   -1.0828 C.2     1  LIG1        0.3373
     21  C         -5.5691    0.4390   -0.9185 C.3     1  LIG1       -0.0260
     22  C          2.2566    1.0743    1.3865 C.3     1  LIG1        0.0033
     23  C          2.2390    0.1677    0.1497 C.3     1  LIG1        0.1323
     24  C         -1.7157    4.5977    2.5731 C.ar    1  LIG1        0.2734
     25  C         -1.4612    2.3915    3.5054 C.ar    1  LIG1       -0.0551
     26  C          3.4694    2.2227    3.1810 C.3     1  LIG1       -0.0061
     27  C         -1.4923    3.7719    3.6810 C.ar    1  LIG1        0.0156
     28  C          4.7379    2.5830    3.8994 C.ar    1  LIG1       -0.0029
     29  C          4.4526    2.1732    0.8658 C.3     1  LIG1       -0.0427
     30  C          4.8338    3.8438    4.5116 C.ar    1  LIG1       -0.0535
     31  C          5.8060    1.6834    4.0345 C.ar    1  LIG1       -0.0535
     32  C         -4.0421    5.1902   -2.1764 C.3     1  LIG1        0.0820
     33  C          5.9872    4.2120    5.2020 C.ar    1  LIG1       -0.0613
     34  C          6.9646    2.0621    4.7135 C.ar    1  LIG1       -0.0613
     35  C          7.0557    3.3253    5.2927 C.ar    1  LIG1       -0.0617
     36  H         -3.8171   -1.3250   -0.4090 H       1  LIG1        0.1516
     37  H          4.1240    0.5657    2.1279 H       1  LIG1        0.2035
     38  H         -1.6038    2.7543   -1.0403 H       1  LIG1        0.0451
     39  H         -2.0376    4.7089    0.4354 H       1  LIG1        0.0688
     40  H         -1.6813    0.7557    2.1522 H       1  LIG1        0.0621
     41  H         -2.0648   -2.5992   -0.5796 H       1  LIG1        0.0290
     42  H         -0.7414   -2.0008    0.4089 H       1  LIG1        0.0290
     43  H         -0.6632   -1.8922   -1.3767 H       1  LIG1        0.0290
     44  H         -5.8095   -0.6286   -0.8607 H       1  LIG1        0.0290
     45  H         -5.8044    0.7625   -1.9378 H       1  LIG1        0.0290
     46  H         -6.2233    0.9507   -0.2066 H       1  LIG1        0.0290
     47  H          1.7239    2.0159    1.2181 H       1  LIG1        0.0848
     48  H          1.7379    0.5558    2.2029 H       1  LIG1        0.0848
     49  H          2.7267    0.6152   -0.7234 H       1  LIG1        0.0752
     50  H          2.7484   -0.7777    0.3621 H       1  LIG1        0.0752
     51  H         -1.3271    1.7389    4.3664 H       1  LIG1        0.0620
     52  H          2.8501    1.6159    3.8526 H       1  LIG1        0.0867
     53  H          2.9073    3.1266    2.9133 H       1  LIG1        0.0867
     54  H         -1.3742    4.1850    4.6817 H       1  LIG1        0.0685
     55  H          3.9028    3.0630    0.5496 H       1  LIG1        0.0778
     56  H          4.6327    1.4995    0.0248 H       1  LIG1        0.0778
     57  H          5.4156    2.4406    1.3046 H       1  LIG1        0.0778
     58  H          4.0107    4.5566    4.4666 H       1  LIG1        0.0622
     59  H          5.7669    0.6797    3.6213 H       1  LIG1        0.0622
     60  H         -3.2449    5.8699   -2.4916 H       1  LIG1        0.0661
     61  H         -4.6373    5.6909   -1.4070 H       1  LIG1        0.0661
     62  H         -4.6543    4.9441   -3.0488 H       1  LIG1        0.0661
     63  H          6.0523    5.1902    5.6747 H       1  LIG1        0.0618
     64  H          7.7992    1.3693    4.8019 H       1  LIG1        0.0618
     65  H          7.9574    3.6156    5.8278 H       1  LIG1        0.0618
@<TRIPOS>BOND
     1     1    16    1
     2     1    23    1
     3     2    20    1
     4     2    32    1
     5     3    16    2
     6     4    20    2
     7     5     9    2
     8     6     9    2
     9     7    14    1
    10     7    15    1
    11     7    36    1
    12     8    22    1
    13     8    26    1
    14     8    29    1
    15     8    37    1
    16     9    24    1
    17    10    11    1
    18    10    12    1
    19    10    13    1
    20    10    38    1
    21    11    14    2
    22    11    16    1
    23    12    15    2
    24    12    20    1
    25    13    17   ar
    26    13    18   ar
    27    14    19    1
    28    15    21    1
    29    17    24   ar
    30    17    39    1
    31    18    25   ar
    32    18    40    1
    33    19    41    1
    34    19    42    1
    35    19    43    1
    36    21    44    1
    37    21    45    1
    38    21    46    1
    39    22    23    1
    40    22    47    1
    41    22    48    1
    42    23    49    1
    43    23    50    1
    44    24    27   ar
    45    25    27   ar
    46    25    51    1
    47    26    28    1
    48    26    52    1
    49    26    53    1
    50    27    54    1
    51    28    30   ar
    52    28    31   ar
    53    29    55    1
    54    29    56    1
    55    29    57    1
    56    30    33   ar
    57    30    58    1
    58    31    34   ar
    59    31    59    1
    60    32    60    1
    61    32    61    1
    62    32    62    1
    63    33    35   ar
    64    33    63    1
    65    34    35   ar
    66    34    64    1
    67    35    65    1
