@<TRIPOS>MOLECULE
*****
 65 67 0 0 0
SMALL
GASTEIGER

@<TRIPOS>ATOM
      1 O           0.7188   -0.0802    0.3049 O.3     1  LIG11      -0.4559
      2 O          -3.7947    3.9297   -1.5696 O.3     1  LIG11      -0.4646
      3 O           0.7282    1.8816   -0.8553 O.2     1  LIG11      -0.2452
      4 O          -5.5474    3.1179   -0.3221 O.2     1  LIG11      -0.2452
      5 O          -1.1262    6.6709    1.4075 O.2     1  LIG11      -0.5760
      6 O          -0.2853    6.2476    3.3949 O.2     1  LIG11       0.0414
      7 N          -3.3105   -0.5713   -0.8398 N.pl3   1  LIG11      -0.3207
      8 N           3.5392    1.6625    2.1480 N.4     1  LIG11       0.2387
      9 N          -0.9081    5.9273    2.3722 N.pl3   1  LIG11       0.0796
     10 C          -2.1286    1.9677   -0.4645 C.3     1  LIG11       0.0508
     11 C          -1.3163    0.6757   -0.5858 C.2     1  LIG11       0.0652
     12 C          -3.6095    1.7751   -0.7498 C.2     1  LIG11       0.0651
     13 C          -1.9267    2.6118    0.9166 C.3     1  LIG11      -0.0287
     14 C          -1.9257   -0.5177   -0.7715 C.2     1  LIG11       0.0157
     15 C          -4.1394    0.5406   -0.8976 C.2     1  LIG11       0.0157
     16 C           0.1441    0.8779   -0.4719 C.2     1  LIG11       0.3377
     17 C          -1.5194    3.9520    1.0142 C.3     1  LIG11       0.0197
     18 C          -2.1772    1.8913    2.1010 C.3     1  LIG11      -0.0572
     19 C          -1.2115   -1.8311   -0.9614 C.3     1  LIG11      -0.0260
     20 C          -4.4468    2.9937   -0.8353 C.2     1  LIG11       0.3373
     21 C          -5.5992    0.2771   -1.1720 C.3     1  LIG11      -0.0260
     22 C           2.1313    1.2564    1.7644 C.3     1  LIG11       0.0033
     23 C           2.0854    0.1925    0.6581 C.3     1  LIG11       0.1323
     24 C          -1.3608    4.5398    2.2764 C.3     1  LIG11       0.2734
     25 C          -2.0091    2.4850    3.3547 C.3     1  LIG11      -0.0551
     26 C           3.5321    2.3235    3.5174 C.3     1  LIG11      -0.0061
     27 C          -1.5967    3.8126    3.4488 C.3     1  LIG11       0.0156
     28 C           4.8967    2.6321    4.0678 C.3     1  LIG11      -0.0029
     29 C           4.1849    2.5426    1.1040 C.3     1  LIG11      -0.0427
     30 C           5.2608    3.9610    4.3364 C.3     1  LIG11      -0.0535
     31 C           5.8153    1.6071    4.3448 C.3     1  LIG11      -0.0535
     32 C          -4.5257    5.1445   -1.7501 C.3     1  LIG11       0.0820
     33 C           6.5184    4.2577    4.8623 C.3     1  LIG11      -0.0613
     34 C           7.0745    1.9103    4.8656 C.3     1  LIG11      -0.0613
     35 C           7.4248    3.2336    5.1235 C.3     1  LIG11      -0.0617
     36 H          -3.7378   -1.4728   -1.0479 H       1  LIG11       0.1516
     37 H           4.1176    0.8195    2.2378 H       1  LIG11       0.2035
     38 H          -1.7302    2.6436   -1.2346 H       1  LIG11       0.0451
     39 H          -1.3390    4.5323    0.1093 H       1  LIG11       0.0688
     40 H          -2.5338    0.8615    2.0531 H       1  LIG11       0.0621
     41 H          -1.7545   -2.4672   -1.6698 H       1  LIG11       0.0290
     42 H          -1.1439   -2.3653   -0.0084 H       1  LIG11       0.0290
     43 H          -0.2058   -1.7061   -1.3729 H       1  LIG11       0.0290
     44 H          -5.7341   -0.6716   -1.7032 H       1  LIG11       0.0290
     45 H          -6.0471    1.0496   -1.8044 H       1  LIG11       0.0290
     46 H          -6.1545    0.2181   -0.2303 H       1  LIG11       0.0290
     47 H           1.5869    2.1702    1.5043 H       1  LIG11       0.0848
     48 H           1.6502    0.8407    2.6580 H       1  LIG11       0.0848
     49 H           2.6533    0.4743   -0.2349 H       1  LIG11       0.0752
     50 H           2.5176   -0.7444    1.0258 H       1  LIG11       0.0752
     51 H          -2.2287    1.9171    4.2572 H       1  LIG11       0.0620
     52 H           3.0277    1.6344    4.2055 H       1  LIG11       0.0867
     53 H           2.9161    3.2267    3.4297 H       1  LIG11       0.0867
     54 H          -1.4897    4.2727    4.4297 H       1  LIG11       0.0685
     55 H           3.6154    3.4726    1.0290 H       1  LIG11       0.0778
     56 H           4.1856    2.0077    0.1523 H       1  LIG11       0.0778
     57 H           5.2190    2.7352    1.3988 H       1  LIG11       0.0778
     58 H           4.5698    4.7835    4.1559 H       1  LIG11       0.0622
     59 H           5.5654    0.5614    4.1815 H       1  LIG11       0.0622
     60 H          -3.9026    5.8291   -2.3325 H       1  LIG11       0.0661
     61 H          -4.7424    5.6102   -0.7839 H       1  LIG11       0.0661
     62 H          -5.4478    4.9546   -2.3081 H       1  LIG11       0.0661
     63 H           6.7910    5.2889    5.0799 H       1  LIG11       0.0618
     64 H           7.7841    1.1149    5.0861 H       1  LIG11       0.0618
     65 H           8.4023    3.4673    5.5411 H       1  LIG11       0.0618
@<TRIPOS>UNITY_ATOM_ATTR
8 1
charge 1
@<TRIPOS>BOND
     1     1    16    1
     2     1    23    1
     3     2    20    1
     4     2    32    1
     5     3    16    2
     6     4    20    2
     7     5     9    2
     8     6     9    2
     9     7    14    1
    10     7    15    1
    11     7    36    1
    12     8    22    1
    13     8    26    1
    14     8    29    1
    15     8    37    1
    16     9    24    1
    17    10    11    1
    18    10    12    1
    19    10    13    1
    20    10    38    1
    21    11    14    2
    22    11    16    1
    23    12    15    2
    24    12    20    1
    25    13    17   ar
    26    13    18   ar
    27    14    19    1
    28    15    21    1
    29    17    24   ar
    30    17    39    1
    31    18    25   ar
    32    18    40    1
    33    19    41    1
    34    19    42    1
    35    19    43    1
    36    21    44    1
    37    21    45    1
    38    21    46    1
    39    22    23    1
    40    22    47    1
    41    22    48    1
    42    23    49    1
    43    23    50    1
    44    24    27   ar
    45    25    27   ar
    46    25    51    1
    47    26    28    1
    48    26    52    1
    49    26    53    1
    50    27    54    1
    51    28    30   ar
    52    28    31   ar
    53    29    55    1
    54    29    56    1
    55    29    57    1
    56    30    33   ar
    57    30    58    1
    58    31    34   ar
    59    31    59    1
    60    32    60    1
    61    32    61    1
    62    32    62    1
    63    33    35   ar
    64    33    63    1
    65    34    35   ar
    66    34    64    1
    67    35    65    1
