@<TRIPOS>MOLECULE
*****
 27 28 0 0 0
SMALL
GASTEIGER

@<TRIPOS>ATOM
      1 N          -0.8945   -0.9293   -0.1596 N.4     1  LIG11       0.2385
      2 N           0.9031   -0.9335    4.0605 N.ar    1  LIG11      -0.2628
      3 C           0.5472   -1.1606    0.2708 C.3     1  LIG11       0.0064
      4 C           1.2142    0.1444   -0.1733 C.3     1  LIG11      -0.0005
      5 C           0.1376    1.2259   -0.1195 C.3     1  LIG11      -0.0071
      6 C          -1.1882    0.5199    0.1098 C.3     1  LIG11      -0.0314
      7 C           0.7335   -1.5388    1.7191 C.ar    1  LIG11       0.0182
      8 C          -1.9219   -1.8719    0.3800 C.3     1  LIG11      -0.0425
      9 C           0.8422   -2.8901    2.0847 C.ar    1  LIG11      -0.0504
     10 C           0.7822   -0.6114    2.7558 C.ar    1  LIG11       0.0360
     11 C           0.9848   -3.2477    3.4238 C.ar    1  LIG11      -0.0431
     12 C           1.0088   -2.2416    4.3705 C.ar    1  LIG11       0.0276
     13 H          -0.9055   -1.0466   -1.1814 H       1  LIG11       0.2037
     14 H           0.9208   -1.9788   -0.3585 H       1  LIG11       0.0904
     15 H           1.5481    0.0408   -1.2141 H       1  LIG11       0.0325
     16 H           2.0996    0.4106    0.4133 H       1  LIG11       0.0325
     17 H           0.1210    1.7908   -1.0585 H       1  LIG11       0.0319
     18 H           0.3322    1.9488    0.6798 H       1  LIG11       0.0319
     19 H          -1.5230    0.6156    1.1480 H       1  LIG11       0.0814
     20 H          -1.9767    0.8460   -0.5744 H       1  LIG11       0.0814
     21 H          -2.0130   -1.7341    1.4601 H       1  LIG11       0.0778
     22 H          -1.6115   -2.8898    0.1314 H       1  LIG11       0.0778
     23 H          -2.8710   -1.6426   -0.1120 H       1  LIG11       0.0778
     24 H           0.8275   -3.6811    1.3368 H       1  LIG11       0.0623
     25 H           0.7213    0.4599    2.5890 H       1  LIG11       0.0834
     26 H           1.0799   -4.2866    3.7240 H       1  LIG11       0.0633
     27 H           1.1194   -2.4641    5.4290 H       1  LIG11       0.0829
@<TRIPOS>UNITY_ATOM_ATTR
1 1
charge 1
@<TRIPOS>BOND
     1     1     3    1
     2     1     6    1
     3     1     8    1
     4     1    13    1
     5     2    10   ar
     6     2    12   ar
     7     3     4    1
     8     3     7    1
     9     3    14    1
    10     4     5    1
    11     4    15    1
    12     4    16    1
    13     5     6    1
    14     5    17    1
    15     5    18    1
    16     6    19    1
    17     6    20    1
    18     7     9   ar
    19     7    10   ar
    20     8    21    1
    21     8    22    1
    22     8    23    1
    23     9    11   ar
    24     9    24    1
    25    10    25    1
    26    11    12   ar
    27    11    26    1
    28    12    27    1
