@<TRIPOS>MOLECULE
*****
 27 28 0 0 0
SMALL
GASTEIGER

@<TRIPOS>ATOM
      1  N         -0.8942   -0.9257   -0.1601 N.4     1  LIG1        0.2385
      2  N          0.9224   -0.9325    4.0634 N.ar    1  LIG1       -0.2628
      3  C          0.5461   -1.1589    0.2750 C.3     1  LIG1        0.0064
      4  C          1.2152    0.1503   -0.1584 C.3     1  LIG1       -0.0005
      5  C          0.1293    1.2253   -0.1413 C.3     1  LIG1       -0.0071
      6  C         -1.1867    0.5183    0.1331 C.3     1  LIG1       -0.0314
      7  C          0.7285   -1.5397    1.7237 C.ar    1  LIG1        0.0182
      8  C         -1.9230   -1.8781    0.3568 C.3     1  LIG1       -0.0425
      9  C          0.8250   -2.8912    2.0904 C.ar    1  LIG1       -0.0504
     10  C          0.7929   -0.6112    2.7594 C.ar    1  LIG1        0.0360
     11  C          0.9760   -3.2481    3.4291 C.ar    1  LIG1       -0.0431
     12  C          1.0195   -2.2408    4.3742 C.ar    1  LIG1        0.0276
     13  H         -0.8999   -1.0252   -1.1839 H       1  LIG1        0.2037
     14  H          0.9229   -1.9745   -0.3556 H       1  LIG1        0.0904
     15  H          1.5816    0.0441   -1.1879 H       1  LIG1        0.0325
     16  H          2.0815    0.4272    0.4515 H       1  LIG1        0.0325
     17  H          0.0966    1.7399   -1.1085 H       1  LIG1        0.0319
     18  H          0.3264    1.9890    0.6183 H       1  LIG1        0.0319
     19  H         -1.4827    0.6019    1.1839 H       1  LIG1        0.0814
     20  H         -2.0009    0.8486   -0.5180 H       1  LIG1        0.0814
     21  H         -2.0134   -1.7672    1.4399 H       1  LIG1        0.0778
     22  H         -1.6150   -2.8900    0.0820 H       1  LIG1        0.0778
     23  H         -2.8718   -1.6346   -0.1290 H       1  LIG1        0.0778
     24  H          0.7968   -3.6832    1.3440 H       1  LIG1        0.0623
     25  H          0.7407    0.4605    2.5912 H       1  LIG1        0.0834
     26  H          1.0642   -4.2873    3.7303 H       1  LIG1        0.0633
     27  H          1.1401   -2.4628    5.4317 H       1  LIG1        0.0829
@<TRIPOS>BOND
     1     1     3    1
     2     1     6    1
     3     1     8    1
     4     1    13    1
     5     2    10   ar
     6     2    12   ar
     7     3     4    1
     8     3     7    1
     9     3    14    1
    10     4     5    1
    11     4    15    1
    12     4    16    1
    13     5     6    1
    14     5    17    1
    15     5    18    1
    16     6    19    1
    17     6    20    1
    18     7     9   ar
    19     7    10   ar
    20     8    21    1
    21     8    22    1
    22     8    23    1
    23     9    11   ar
    24     9    24    1
    25    10    25    1
    26    11    12   ar
    27    11    26    1
    28    12    27    1
