@<TRIPOS>MOLECULE
*****
 20 20 0 0 0
SMALL
GASTEIGER

@<TRIPOS>ATOM
      1 O           0.8519   -1.0375   -0.0766 O.2     1  LIG11      -0.5068
      2 O          -0.2291    5.2059   -1.9394 O.2     1  LIG11      -0.2758
      3 N          -0.3358    3.3253   -3.3246 N.am    1  LIG11      -0.2857
      4 C          -0.0257    2.2683   -2.4447 C.3     1  LIG11       0.0336
      5 C           0.2552    2.4389   -1.0867 C.3     1  LIG11      -0.0370
      6 C          -0.0041    0.9741   -2.9828 C.3     1  LIG11      -0.0370
      7 C           0.5525    1.3366   -0.2767 C.3     1  LIG11      -0.0184
      8 C           0.2925   -0.1275   -2.1764 C.3     1  LIG11      -0.0184
      9 C           0.5682    0.0620   -0.8296 C.3     1  LIG11       0.1170
     10 C          -0.4163    4.6741   -3.0272 C.2     1  LIG11       0.2141
     11 C          -0.7814    5.4938   -4.2394 C.3     1  LIG11       0.0125
     12 H           1.0200   -0.7507    0.8363 H       1  LIG11       0.2921
     13 H          -0.5208    3.0615   -4.2841 H       1  LIG11       0.1548
     14 H           0.2510    3.4205   -0.6231 H       1  LIG11       0.0637
     15 H          -0.2169    0.8017   -4.0342 H       1  LIG11       0.0637
     16 H           0.7662    1.4996    0.7749 H       1  LIG11       0.0655
     17 H           0.3078   -1.1283   -2.5982 H       1  LIG11       0.0655
     18 H          -0.8262    6.5523   -3.9676 H       1  LIG11       0.0323
     19 H          -1.7612    5.1858   -4.6150 H       1  LIG11       0.0323
     20 H          -0.0255    5.3635   -5.0189 H       1  LIG11       0.0323
@<TRIPOS>BOND
     1     1     9    1
     2     1    12    1
     3     2    10    2
     4     3     4    1
     5     3    10   am
     6     3    13    1
     7     4     5   ar
     8     4     6   ar
     9     5     7   ar
    10     5    14    1
    11     6     8   ar
    12     6    15    1
    13     7     9   ar
    14     7    16    1
    15     8     9   ar
    16     8    17    1
    17    10    11    1
    18    11    18    1
    19    11    19    1
    20    11    20    1
