@<TRIPOS>MOLECULE
*****
 20 20 0 0 0
SMALL
GASTEIGER

@<TRIPOS>ATOM
      1  O          0.8495   -1.0380   -0.0765 O.3     1  LIG1       -0.5068
      2  O         -0.2242    5.2070   -1.9406 O.2     1  LIG1       -0.2758
      3  N         -0.3339    3.3258   -3.3246 N.am    1  LIG1       -0.2857
      4  C         -0.0240    2.2688   -2.4446 C.ar    1  LIG1        0.0336
      5  C          0.2562    2.4391   -1.0864 C.ar    1  LIG1       -0.0370
      6  C         -0.0026    0.9747   -2.9829 C.ar    1  LIG1       -0.0370
      7  C          0.5522    1.3364   -0.2765 C.ar    1  LIG1       -0.0184
      8  C          0.2927   -0.1273   -2.1765 C.ar    1  LIG1       -0.0184
      9  C          0.5674    0.0619   -0.8295 C.ar    1  LIG1        0.1170
     10  C         -0.4142    4.6746   -3.0276 C.2     1  LIG1        0.2141
     11  C         -0.7832    5.4933   -4.2393 C.3     1  LIG1        0.0125
     12  H          1.0172   -0.7516    0.8366 H       1  LIG1        0.2921
     13  H         -0.5194    3.0617   -4.2840 H       1  LIG1        0.1548
     14  H          0.2522    3.4207   -0.6228 H       1  LIG1        0.0637
     15  H         -0.2149    0.8025   -4.0345 H       1  LIG1        0.0637
     16  H          0.7653    1.4990    0.7754 H       1  LIG1        0.0655
     17  H          0.3075   -1.1280   -2.5985 H       1  LIG1        0.0655
     18  H         -0.8295    6.5519   -3.9679 H       1  LIG1        0.0323
     19  H         -1.7633    5.1834   -4.6128 H       1  LIG1        0.0323
     20  H         -0.0289    5.3641   -5.0204 H       1  LIG1        0.0323
@<TRIPOS>BOND
     1     1     9    1
     2     1    12    1
     3     2    10    2
     4     3     4    1
     5     3    10   am
     6     3    13    1
     7     4     5   ar
     8     4     6   ar
     9     5     7   ar
    10     5    14    1
    11     6     8   ar
    12     6    15    1
    13     7     9   ar
    14     7    16    1
    15     8     9   ar
    16     8    17    1
    17    10    11    1
    18    11    18    1
    19    11    19    1
    20    11    20    1
