@<TRIPOS>MOLECULE
*****
 93 99 0 0 0
SMALL
GASTEIGER

@<TRIPOS>ATOM
      1  F         25.9649   -6.1407    9.9248 F       1  LIG1       -0.2050
      2  F         28.6354   -2.4923   11.2060 F       1  LIG1       -0.2054
      3  O         22.5174   -3.8693   10.8942 O.3     1  LIG1       -0.3664
      4  O         20.5737   -7.5005   10.3745 O.3     1  LIG1       -0.4916
      5  O          6.5877  -13.2261    1.6713 O.3     1  LIG1       -0.3900
      6  O          8.1383  -11.6429    3.4403 O.2     1  LIG1       -0.2444
      7  N         23.1919   -3.2909    8.0794 N.ar    1  LIG1       -0.2489
      8  N         24.2686   -2.8239    7.4189 N.ar    1  LIG1       -0.1583
      9  N         15.5468   -8.8040    8.1485 N.pl3   1  LIG1       -0.3269
     10  N         12.7370   -9.5385    7.7735 N.pl3   1  LIG1       -0.3269
     11  N         22.5630   -1.3073    7.4152 N.ar    1  LIG1       -0.2228
     12  N          5.9776  -11.5338    4.3439 N.ar    1  LIG1       -0.2073
     13  N          7.6507  -10.6949    5.5378 N.ar    1  LIG1       -0.2501
     14  N          5.4249  -10.9757    5.4760 N.ar    1  LIG1       -0.1565
     15  C         23.4987   -4.6676   10.1646 C.3     1  LIG1        0.1168
     16  C         23.2754   -6.1103   10.7060 C.3     1  LIG1       -0.0097
     17  C         22.0637   -6.0137   11.6247 C.3     1  LIG1        0.0196
     18  C         22.1781   -4.5823   12.0928 C.3     1  LIG1        0.0549
     19  C         23.1804   -4.6205    8.6516 C.3     1  LIG1        0.0765
     20  C         24.8850   -4.0933   10.4577 C.ar    1  LIG1        0.0213
     21  C         20.7225   -6.1849   10.9082 C.3     1  LIG1        0.0946
     22  C         26.0484   -4.8636   10.3241 C.ar    1  LIG1        0.1321
     23  C         25.0397   -2.7373   10.8144 C.ar    1  LIG1       -0.0503
     24  C         27.3102   -4.3398   10.5891 C.ar    1  LIG1        0.0092
     25  C         26.3031   -2.1972   11.0600 C.ar    1  LIG1       -0.0259
     26  C         22.1724   -2.3904    8.0467 C.ar    1  LIG1        0.1144
     27  C         19.3420   -7.7443    9.8188 C.ar    1  LIG1        0.1206
     28  C         27.4248   -3.0078   10.9565 C.ar    1  LIG1        0.1261
     29  C         15.0717  -10.2009    8.3469 C.3     1  LIG1        0.0280
     30  C         14.4479   -7.8067    8.3068 C.3     1  LIG1        0.0280
     31  C         13.8209  -10.5066    7.4928 C.3     1  LIG1        0.0280
     32  C         13.1835   -8.1570    7.4949 C.3     1  LIG1        0.0280
     33  C         16.7968   -8.4673    8.7062 C.ar    1  LIG1        0.0300
     34  C         18.3607   -6.7870    9.5908 C.ar    1  LIG1       -0.0182
     35  C         19.0741   -9.0568    9.4524 C.ar    1  LIG1       -0.0182
     36  C         23.8463   -1.6095    7.0572 C.ar    1  LIG1        0.1379
     37  C         17.1239   -7.1451    9.0429 C.ar    1  LIG1       -0.0372
     38  C         17.8269   -9.4065    8.8997 C.ar    1  LIG1       -0.0372
     39  C         11.4987   -9.8022    7.1650 C.ar    1  LIG1        0.0299
     40  C          5.1261  -11.9976    3.2469 C.3     1  LIG1        0.0832
     41  C         11.3616  -10.4481    5.9372 C.ar    1  LIG1       -0.0387
     42  C         10.3271   -9.3887    7.8082 C.ar    1  LIG1       -0.0387
     43  C          5.5442  -13.3666    2.6336 C.3     1  LIG1        0.0749
     44  C          8.9220  -10.3460    6.0548 C.ar    1  LIG1        0.0525
     45  C          4.9933  -10.9175    2.1551 C.3     1  LIG1       -0.0308
     46  C         10.0990  -10.7107    5.3913 C.ar    1  LIG1       -0.0359
     47  C          9.0596   -9.6582    7.2685 C.ar    1  LIG1       -0.0359
     48  C          7.3680  -11.3291    4.3366 C.ar    1  LIG1        0.3514
     49  C          6.4474  -10.5137    6.1228 C.ar    1  LIG1        0.1251
     50  C          5.9079  -14.4235    3.6723 C.3     1  LIG1       -0.0369
     51  C          4.2945   -9.6561    2.6473 C.3     1  LIG1       -0.0633
     52  H          7.0682  -14.0668    1.5986 H       1  LIG1        0.2099
     53  H         24.1224   -6.4465   11.3155 H       1  LIG1        0.0301
     54  H         23.1510   -6.8526    9.9101 H       1  LIG1        0.0301
     55  H         22.1308   -6.7360   12.4451 H       1  LIG1        0.0357
     56  H         21.2524   -4.1756   12.5102 H       1  LIG1        0.0564
     57  H         22.9814   -4.4508   12.8265 H       1  LIG1        0.0564
     58  H         23.8906   -5.2298    8.0789 H       1  LIG1        0.0541
     59  H         22.1778   -5.0180    8.4545 H       1  LIG1        0.0541
     60  H         19.9265   -5.9995   11.6423 H       1  LIG1        0.0700
     61  H         20.6388   -5.4534   10.0965 H       1  LIG1        0.0700
     62  H         24.1730   -2.0803   10.8803 H       1  LIG1        0.0623
     63  H         28.1935   -4.9603   10.4988 H       1  LIG1        0.0675
     64  H         26.4145   -1.1491   11.3204 H       1  LIG1        0.0646
     65  H         21.2020   -2.5669    8.4886 H       1  LIG1        0.1044
     66  H         14.8444  -10.3611    9.4085 H       1  LIG1        0.0479
     67  H         15.8261  -10.9309    8.0399 H       1  LIG1        0.0479
     68  H         14.7543   -6.8213    7.9427 H       1  LIG1        0.0479
     69  H         14.1872   -7.7254    9.3701 H       1  LIG1        0.0479
     70  H         14.1136  -10.4656    6.4358 H       1  LIG1        0.0479
     71  H         13.4825  -11.5251    7.7194 H       1  LIG1        0.0479
     72  H         12.4022   -7.4320    7.7567 H       1  LIG1        0.0479
     73  H         13.3997   -8.0419    6.4240 H       1  LIG1        0.0479
     74  H         18.5043   -5.7374    9.8214 H       1  LIG1        0.0655
     75  H         19.8301   -9.8251    9.5939 H       1  LIG1        0.0655
     76  H         24.4881   -0.9272    6.5148 H       1  LIG1        0.1065
     77  H         16.4272   -6.3278    8.8977 H       1  LIG1        0.0637
     78  H         17.7036  -10.4471    8.6195 H       1  LIG1        0.0637
     79  H          4.1370  -12.1600    3.6977 H       1  LIG1        0.0572
     80  H         12.2295  -10.7597    5.3643 H       1  LIG1        0.0637
     81  H         10.3978   -8.8722    8.7635 H       1  LIG1        0.0637
     82  H          4.6838  -13.7430    2.0667 H       1  LIG1        0.0612
     83  H          4.4154  -11.3216    1.3152 H       1  LIG1        0.0284
     84  H          5.9800  -10.6412    1.7647 H       1  LIG1        0.0284
     85  H         10.0846  -11.2294    4.4375 H       1  LIG1        0.0639
     86  H          8.2030   -9.3167    7.8402 H       1  LIG1        0.0639
     87  H          6.3700  -10.0047    7.0892 H       1  LIG1        0.1052
     88  H          6.8280  -14.1680    4.2068 H       1  LIG1        0.0255
     89  H          6.0976  -15.3853    3.1822 H       1  LIG1        0.0255
     90  H          5.1003  -14.5614    4.3973 H       1  LIG1        0.0255
     91  H          3.3105   -9.8905    3.0656 H       1  LIG1        0.0230
     92  H          4.1523   -8.9576    1.8167 H       1  LIG1        0.0230
     93  H          4.8837   -9.1429    3.4130 H       1  LIG1        0.0230
@<TRIPOS>BOND
     1     1    22    1
     2     2    28    1
     3     3    15    1
     4     3    18    1
     5     4    21    1
     6     4    27    1
     7     5    43    1
     8     5    52    1
     9     6    48    2
    10     7     8   ar
    11     7    19    1
    12     7    26   ar
    13     8    36   ar
    14     9    29    1
    15     9    30    1
    16     9    33    1
    17    10    31    1
    18    10    32    1
    19    10    39    1
    20    11    26   ar
    21    11    36   ar
    22    12    14   ar
    23    12    48   ar
    24    12    40    1
    25    13    44    1
    26    13    48   ar
    27    13    49   ar
    28    14    49   ar
    29    15    16    1
    30    15    19    1
    31    15    20    1
    32    16    17    1
    33    16    53    1
    34    16    54    1
    35    17    18    1
    36    17    21    1
    37    17    55    1
    38    18    56    1
    39    18    57    1
    40    19    58    1
    41    19    59    1
    42    20    22   ar
    43    20    23   ar
    44    21    60    1
    45    21    61    1
    46    22    24   ar
    47    23    25   ar
    48    23    62    1
    49    24    28   ar
    50    24    63    1
    51    25    28   ar
    52    25    64    1
    53    26    65    1
    54    27    34   ar
    55    27    35   ar
    56    29    31    1
    57    29    66    1
    58    29    67    1
    59    30    32    1
    60    30    68    1
    61    30    69    1
    62    31    70    1
    63    31    71    1
    64    32    72    1
    65    32    73    1
    66    33    37   ar
    67    33    38   ar
    68    34    37   ar
    69    34    74    1
    70    35    38   ar
    71    35    75    1
    72    36    76    1
    73    37    77    1
    74    38    78    1
    75    39    41   ar
    76    39    42   ar
    77    40    45    1
    78    40    43    1
    79    40    79    1
    80    41    46   ar
    81    41    80    1
    82    42    47   ar
    83    42    81    1
    84    43    50    1
    85    43    82    1
    86    44    46   ar
    87    44    47   ar
    88    45    51    1
    89    45    83    1
    90    45    84    1
    91    46    85    1
    92    47    86    1
    93    49    87    1
    94    50    88    1
    95    50    89    1
    96    50    90    1
    97    51    91    1
    98    51    92    1
    99    51    93    1
