@<TRIPOS>MOLECULE
*****
 41 43 0 0 0
SMALL
GASTEIGER

@<TRIPOS>ATOM
      1  S          0.4011    0.0683    0.2408 S.O2    1  LIG1        0.0735
      2  O         -0.2593   -1.2001   -0.0260 O.2     1  LIG1       -0.1499
      3  O          0.1440    0.7537    1.4931 O.2     1  LIG1       -0.1499
      4  O         12.6079   -1.0655   -0.0603 O.3     1  LIG1       -0.5061
      5  O         12.7987   -1.1933    2.4327 O.co2   1  LIG1       -0.8440
      6  O         11.0309   -0.9444    3.8111 O.co2   1  LIG1       -0.3035
      7  N         -0.0789    1.0879   -1.0484 N.pl3   1  LIG1       -0.1995
      8  N          6.2351   -0.6892   -0.6349 N.pl3   1  LIG1       -0.1294
      9  N          1.5243    2.5888   -1.6638 N.ar    1  LIG1       -0.2390
     10  N          7.1104   -0.3087    0.5039 N.pl3   1  LIG1       -0.1293
     11  C          2.1409   -0.1448   -0.0013 C.ar    1  LIG1        0.1087
     12  C          3.0393    0.7362    0.5978 C.ar    1  LIG1       -0.0332
     13  C          2.6081   -1.2148   -0.7666 C.ar    1  LIG1       -0.0332
     14  C          4.9166   -0.4909   -0.3912 C.ar    1  LIG1        0.0725
     15  C          4.4099    0.5629    0.3870 C.ar    1  LIG1       -0.0353
     16  C          3.9847   -1.3706   -0.9603 C.ar    1  LIG1       -0.0353
     17  C          0.4161    2.4056   -0.9386 C.ar    1  LIG1        0.1377
     18  C          8.4449   -0.5116    0.3322 C.ar    1  LIG1        0.0732
     19  C         -0.1583    3.3646   -0.1234 C.ar    1  LIG1       -0.0204
     20  C         10.6809   -0.8435    1.4051 C.ar    1  LIG1        0.0504
     21  C          9.2780   -0.6488    1.4756 C.ar    1  LIG1       -0.0241
     22  C         11.2528   -0.8843    0.1229 C.ar    1  LIG1        0.1266
     23  C          9.0909   -0.5592   -0.9119 C.ar    1  LIG1       -0.0337
     24  C         10.4751   -0.7419   -1.0228 C.ar    1  LIG1       -0.0177
     25  C          0.4884    4.5926   -0.0174 C.ar    1  LIG1       -0.0570
     26  C          2.1798    3.7523   -1.4765 C.ar    1  LIG1        0.0297
     27  C          1.6956    4.7833   -0.6854 C.ar    1  LIG1       -0.0435
     28  C         11.5406   -1.0043    2.6444 C.2     1  LIG1        0.1221
     29  H         12.9513   -1.1583    0.8693 H       1  LIG1        0.2922
     30  H          0.3520    0.6968   -1.8878 H       1  LIG1        0.1752
     31  H          2.7087    1.5627    1.2138 H       1  LIG1        0.0638
     32  H          1.9342   -1.9383   -1.2087 H       1  LIG1        0.0638
     33  H          5.1285    1.2457    0.8378 H       1  LIG1        0.0638
     34  H          4.3706   -2.2054   -1.5406 H       1  LIG1        0.0638
     35  H         -1.0640    3.1535    0.4315 H       1  LIG1        0.0652
     36  H          8.8013   -0.6137    2.4542 H       1  LIG1        0.0645
     37  H          8.4858   -0.4450   -1.8067 H       1  LIG1        0.0638
     38  H         10.9329   -0.7732   -2.0016 H       1  LIG1        0.0655
     39  H          0.0822    5.3745    0.6162 H       1  LIG1        0.0619
     40  H          3.1440    3.8217   -1.9747 H       1  LIG1        0.0830
     41  H          2.2651    5.6987   -0.5724 H       1  LIG1        0.0633
@<TRIPOS>BOND
     1     1     2    2
     2     1     3    2
     3     1     7    1
     4     1    11    1
     5     4    22    1
     6     4    29    1
     7     5    28   ar
     8     6    28   ar
     9     7    17    1
    10     7    30    1
    11     8    10    1
    12     8    14    1
    13     9    17   ar
    14     9    26   ar
    15    10    18    1
    16    11    12   ar
    17    11    13   ar
    18    12    15   ar
    19    12    31    1
    20    13    16   ar
    21    13    32    1
    22    14    15   ar
    23    14    16   ar
    24    15    33    1
    25    16    34    1
    26    17    19   ar
    27    18    21   ar
    28    18    23   ar
    29    19    25   ar
    30    19    35    1
    31    20    21   ar
    32    20    22   ar
    33    20    28    1
    34    21    36    1
    35    22    24   ar
    36    23    24   ar
    37    23    37    1
    38    24    38    1
    39    25    27   ar
    40    25    39    1
    41    26    27   ar
    42    26    40    1
    43    27    41    1
