@<TRIPOS>MOLECULE
*****
 41 43 0 0 0
SMALL
GASTEIGER

@<TRIPOS>ATOM
      1 S           0.2663    0.0053    0.1039 S.O2    1  LIG11       0.0735
      2 O          -0.3861   -1.2167   -0.3348 O.2     1  LIG11      -0.1499
      3 O          -0.0850    0.5756    1.3914 O.2     1  LIG11      -0.1499
      4 O          12.5039   -1.0116   -0.1225 O.2     1  LIG11      -0.5061
      5 O          12.8278   -0.8509    2.3526 O.2     1  LIG11      -0.8440
      6 O          11.1296   -0.4855    3.7912 O.2     1  LIG11      -0.3035
      7 N          -0.0720    1.1513   -1.1106 N.pl3   1  LIG11      -0.1995
      8 N           6.1286   -0.6974   -0.4883 N.pl3   1  LIG11      -0.1294
      9 N           1.4100    2.6581   -1.9467 N.pl3   1  LIG11      -0.2390
     10 N           7.0141   -0.3318    0.6451 N.pl3   1  LIG11      -0.1293
     11 C           2.0139   -0.2122   -0.0139 C.3     1  LIG11       0.1087
     12 C           2.8672    0.4858    0.8384 C.3     1  LIG11      -0.0332
     13 C           2.5264   -1.0875   -0.9707 C.3     1  LIG11      -0.0332
     14 C           4.8038   -0.5223   -0.2730 C.3     1  LIG11       0.0725
     15 C           4.2488    0.3288    0.6964 C.3     1  LIG11      -0.0353
     16 C           3.9099   -1.2243   -1.0955 C.3     1  LIG11      -0.0353
     17 C           0.5576    2.4037   -0.9430 C.3     1  LIG11       0.1377
     18 C           8.3496   -0.5075    0.4323 C.3     1  LIG11       0.0732
     19 C           0.2946    3.2700    0.1035 C.3     1  LIG11      -0.0204
     20 C          10.6483   -0.6676    1.4128 C.3     1  LIG11       0.0504
     21 C           9.2436   -0.5003    1.5380 C.3     1  LIG11      -0.0241
     22 C          11.1560   -0.8392    0.1141 C.3     1  LIG11       0.1266
     23 C           8.9385   -0.6780   -0.8307 C.3     1  LIG11      -0.0337
     24 C          10.3186   -0.8425   -0.9959 C.3     1  LIG11      -0.0177
     25 C           1.0380    4.4431    0.1752 C.3     1  LIG11      -0.0570
     26 C           2.1615    3.7720   -1.8188 C.3     1  LIG11       0.0297
     27 C           2.0073    4.6910   -0.7916 C.3     1  LIG11      -0.0435
     28 C          11.5779   -0.6667    2.6119 C.3     1  LIG11       0.1221
     29 H          12.8985   -0.9911    0.7906 H       1  LIG11       0.2922
     30 H           0.2842    0.7728   -1.9896 H       1  LIG11       0.1752
     31 H           2.4958    1.1582    1.6015 H       1  LIG11       0.0638
     32 H           1.8818   -1.6623   -1.6238 H       1  LIG11       0.0638
     33 H           4.9335    0.8753    1.3432 H       1  LIG11       0.0638
     34 H           4.3317   -1.8978   -1.8377 H       1  LIG11       0.0638
     35 H          -0.4390    3.0290    0.8627 H       1  LIG11       0.0652
     36 H           8.8185   -0.3692    2.5320 H       1  LIG11       0.0645
     37 H           8.2904   -0.6799   -1.7025 H       1  LIG11       0.0638
     38 H          10.7242   -0.9738   -1.9890 H       1  LIG11       0.0655
     39 H           0.8951    5.1321    1.0013 H       1  LIG11       0.0619
     40 H           2.9283    3.9018   -2.5777 H       1  LIG11       0.0830
     41 H           2.6494    5.5623   -0.7336 H       1  LIG11       0.0633
@<TRIPOS>UNITY_ATOM_ATTR
5 1
charge -1
@<TRIPOS>BOND
     1     1     2    2
     2     1     3    2
     3     1     7    1
     4     1    11    1
     5     4    22    1
     6     4    29    1
     7     5    28    1
     8     6    28    2
     9     7    17    1
    10     7    30    1
    11     8    10    1
    12     8    14    1
    13     9    17   ar
    14     9    26   ar
    15    10    18    1
    16    11    12   ar
    17    11    13   ar
    18    12    15   ar
    19    12    31    1
    20    13    16   ar
    21    13    32    1
    22    14    15   ar
    23    14    16   ar
    24    15    33    1
    25    16    34    1
    26    17    19   ar
    27    18    21   ar
    28    18    23   ar
    29    19    25   ar
    30    19    35    1
    31    20    21   ar
    32    20    22   ar
    33    20    28    1
    34    21    36    1
    35    22    24   ar
    36    23    24   ar
    37    23    37    1
    38    24    38    1
    39    25    27   ar
    40    25    39    1
    41    26    27   ar
    42    26    40    1
    43    27    41    1
