MODEL 1
REMARK VINA RESULT:      -7.5      0.000      0.000
REMARK  8 active torsions:
REMARK  status: ('A' for Active; 'I' for Inactive)
REMARK    1  A    between atoms: S_1  and  N_7 
REMARK    2  A    between atoms: S_1  and  C_11 
REMARK    3  A    between atoms: O_4  and  C_22 
REMARK    4  A    between atoms: N_7  and  C_17 
REMARK    5  A    between atoms: N_8  and  N_10 
REMARK    6  A    between atoms: N_8  and  C_14 
REMARK    7  A    between atoms: N_10  and  C_18 
REMARK    8  A    between atoms: C_20  and  C_28 
ROOT
ATOM      1  C   LIG d   1       7.740  14.903   1.769  0.00  0.00     0.075 A 
ATOM      2  C   LIG d   1       7.247  16.099   2.286  0.00  0.00     0.027 A 
ATOM      3  C   LIG d   1       9.050  14.819   1.298  0.00  0.00     0.027 A 
ATOM      4  C   LIG d   1       9.386  17.191   1.801  0.00  0.00     0.079 A 
ATOM      5  C   LIG d   1       8.071  17.229   2.291  0.00  0.00     0.035 A 
ATOM      6  C   LIG d   1       9.851  15.962   1.311  0.00  0.00     0.035 A 
ENDROOT
BRANCH   4   7
ATOM      7  N   LIG d   1      10.226  18.251   1.745  0.00  0.00    -0.150 NA
BRANCH   7   8
ATOM      8  N   LIG d   1      10.470  18.802   0.390  0.00  0.00    -0.150 NA
BRANCH   8   9
ATOM      9  C   LIG d   1      10.063  20.089   0.193  0.00  0.00     0.080 A 
ATOM     10  C   LIG d   1       8.948  20.352  -0.650  0.00  0.00     0.054 A 
ATOM     11  C   LIG d   1       8.458  21.657  -0.919  0.00  0.00     0.076 A 
ATOM     12  C   LIG d   1       9.134  22.729  -0.313  0.00  0.00     0.082 A 
ATOM     13  C   LIG d   1      10.234  22.518   0.511  0.00  0.00     0.040 A 
ATOM     14  C   LIG d   1      10.686  21.215   0.755  0.00  0.00     0.036 A 
BRANCH  11  15
ATOM     15  C   LIG d   1       7.259  21.907  -1.815  0.00  0.00     0.212 C 
ATOM     16  O   LIG d   1       6.282  21.074  -1.691  0.00  0.00    -0.644 OA
ATOM     17  O   LIG d   1       7.238  22.891  -2.625  0.00  0.00    -0.644 OA
ENDBRANCH  11  15
BRANCH  12  18
ATOM     18  O   LIG d   1       8.741  24.037  -0.504  0.00  0.00    -0.360 OA
ATOM     19  H   LIG d   1       8.286  24.265   0.351  0.00  0.00     0.217 HD
ENDBRANCH  12  18
ENDBRANCH   8   9
ENDBRANCH   7   8
ENDBRANCH   4   7
BRANCH   1  20
ATOM     20  S   LIG d   1       6.709  13.472   1.699  0.00  0.00     0.247 S 
ATOM     21  O   LIG d   1       5.826  13.477   2.853  0.00  0.00    -0.205 OA
ATOM     22  O   LIG d   1       6.143  13.323   0.371  0.00  0.00    -0.205 OA
BRANCH  20  23
ATOM     23  N   LIG d   1       7.795  12.188   1.975  0.00  0.00    -0.165 NA
ATOM     24  H   LIG d   1       7.917  11.699   1.087  0.00  0.00     0.147 HD
BRANCH  23  25
ATOM     25  C   LIG d   1       7.349  11.216   2.897  0.00  0.00     0.116 C 
ATOM     26  N   LIG d   1       6.385  10.449   2.367  0.00  0.00    -0.248 NA
ATOM     27  C   LIG d   1       5.797   9.571   3.207  0.00  0.00     0.118 C 
ATOM     28  C   LIG d   1       6.218   9.353   4.510  0.00  0.00     0.019 C 
ATOM     29  C   LIG d   1       7.292  10.096   4.990  0.00  0.00     0.005 C 
ATOM     30  C   LIG d   1       7.873  11.054   4.167  0.00  0.00     0.045 C 
ENDBRANCH  23  25
ENDBRANCH  20  23
ENDBRANCH   1  20
TORSDOF 8
ENDMDL
MODEL 2
REMARK VINA RESULT:      -7.4      2.133      2.449
REMARK  8 active torsions:
REMARK  status: ('A' for Active; 'I' for Inactive)
REMARK    1  A    between atoms: S_1  and  N_7 
REMARK    2  A    between atoms: S_1  and  C_11 
REMARK    3  A    between atoms: O_4  and  C_22 
REMARK    4  A    between atoms: N_7  and  C_17 
REMARK    5  A    between atoms: N_8  and  N_10 
REMARK    6  A    between atoms: N_8  and  C_14 
REMARK    7  A    between atoms: N_10  and  C_18 
REMARK    8  A    between atoms: C_20  and  C_28 
ROOT
ATOM      1  C   LIG d   1       9.411  15.861   2.883  0.00  0.00     0.075 A 
ATOM      2  C   LIG d   1       8.489  16.804   3.335  0.00  0.00     0.027 A 
ATOM      3  C   LIG d   1       9.851  15.876   1.561  0.00  0.00     0.027 A 
ATOM      4  C   LIG d   1       8.377  17.772   1.087  0.00  0.00     0.079 A 
ATOM      5  C   LIG d   1       7.979  17.742   2.433  0.00  0.00     0.035 A 
ATOM      6  C   LIG d   1       9.324  16.821   0.679  0.00  0.00     0.035 A 
ENDROOT
BRANCH   4   7
ATOM      7  N   LIG d   1       7.901  18.630   0.154  0.00  0.00    -0.150 NA
BRANCH   7   8
ATOM      8  N   LIG d   1       8.920  19.224  -0.746  0.00  0.00    -0.150 NA
BRANCH   8   9
ATOM      9  C   LIG d   1       9.053  20.580  -0.675  0.00  0.00     0.080 A 
ATOM     10  C   LIG d   1       8.082  21.414  -1.294  0.00  0.00     0.054 A 
ATOM     11  C   LIG d   1       8.141  22.833  -1.277  0.00  0.00     0.076 A 
ATOM     12  C   LIG d   1       9.234  23.417  -0.613  0.00  0.00     0.082 A 
ATOM     13  C   LIG d   1      10.210  22.638  -0.002  0.00  0.00     0.040 A 
ATOM     14  C   LIG d   1      10.115  21.242  -0.038  0.00  0.00     0.036 A 
BRANCH  11  15
ATOM     15  C   LIG d   1       7.085  23.699  -1.937  0.00  0.00     0.212 C 
ATOM     16  O   LIG d   1       6.608  24.653  -1.211  0.00  0.00    -0.644 OA
ATOM     17  O   LIG d   1       6.715  23.485  -3.137  0.00  0.00    -0.644 OA
ENDBRANCH  11  15
BRANCH  12  18
ATOM     18  O   LIG d   1       9.389  24.785  -0.534  0.00  0.00    -0.360 OA
ATOM     19  H   LIG d   1       9.521  24.943   0.439  0.00  0.00     0.217 HD
ENDBRANCH  12  18
ENDBRANCH   8   9
ENDBRANCH   7   8
ENDBRANCH   4   7
BRANCH   1  20
ATOM     20  S   LIG d   1      10.034  14.629   3.983  0.00  0.00     0.247 S 
ATOM     21  O   LIG d   1      11.475  14.784   4.089  0.00  0.00    -0.205 OA
ATOM     22  O   LIG d   1       9.233  14.582   5.192  0.00  0.00    -0.205 OA
BRANCH  20  23
ATOM     23  N   LIG d   1       9.805  13.178   3.120  0.00  0.00    -0.165 NA
ATOM     24  H   LIG d   1       9.651  13.429   2.143  0.00  0.00     0.147 HD
BRANCH  23  25
ATOM     25  C   LIG d   1       8.677  12.422   3.510  0.00  0.00     0.116 C 
ATOM     26  N   LIG d   1       7.592  12.769   2.803  0.00  0.00    -0.248 NA
ATOM     27  C   LIG d   1       6.428  12.199   3.184  0.00  0.00     0.118 C 
ATOM     28  C   LIG d   1       6.336  11.217   4.158  0.00  0.00     0.019 C 
ATOM     29  C   LIG d   1       7.503  10.809   4.797  0.00  0.00     0.005 C 
ATOM     30  C   LIG d   1       8.705  11.427   4.470  0.00  0.00     0.045 C 
ENDBRANCH  23  25
ENDBRANCH  20  23
ENDBRANCH   1  20
TORSDOF 8
ENDMDL
MODEL 3
REMARK VINA RESULT:      -7.4     25.239     28.312
REMARK  8 active torsions:
REMARK  status: ('A' for Active; 'I' for Inactive)
REMARK    1  A    between atoms: S_1  and  N_7 
REMARK    2  A    between atoms: S_1  and  C_11 
REMARK    3  A    between atoms: O_4  and  C_22 
REMARK    4  A    between atoms: N_7  and  C_17 
REMARK    5  A    between atoms: N_8  and  N_10 
REMARK    6  A    between atoms: N_8  and  C_14 
REMARK    7  A    between atoms: N_10  and  C_18 
REMARK    8  A    between atoms: C_20  and  C_28 
ROOT
ATOM      1  C   LIG d   1      10.201  -2.660  24.679  0.00  0.00     0.075 A 
ATOM      2  C   LIG d   1      11.009  -2.372  23.582  0.00  0.00     0.027 A 
ATOM      3  C   LIG d   1       9.767  -1.643  25.529  0.00  0.00     0.027 A 
ATOM      4  C   LIG d   1      11.022  -0.004  24.212  0.00  0.00     0.079 A 
ATOM      5  C   LIG d   1      11.415  -1.052  23.364  0.00  0.00     0.035 A 
ATOM      6  C   LIG d   1      10.189  -0.334  25.291  0.00  0.00     0.035 A 
ENDROOT
BRANCH   4   7
ATOM      7  N   LIG d   1      11.402   1.288  24.080  0.00  0.00    -0.150 NA
BRANCH   7   8
ATOM      8  N   LIG d   1      11.304   1.848  22.710  0.00  0.00    -0.150 NA
BRANCH   8   9
ATOM      9  C   LIG d   1      10.043   1.935  22.196  0.00  0.00     0.080 A 
ATOM     10  C   LIG d   1       9.693   1.158  21.058  0.00  0.00     0.054 A 
ATOM     11  C   LIG d   1       8.409   1.188  20.452  0.00  0.00     0.076 A 
ATOM     12  C   LIG d   1       7.456   2.048  21.022  0.00  0.00     0.082 A 
ATOM     13  C   LIG d   1       7.758   2.833  22.130  0.00  0.00     0.040 A 
ATOM     14  C   LIG d   1       9.035   2.772  22.702  0.00  0.00     0.036 A 
BRANCH  11  15
ATOM     15  C   LIG d   1       8.060   0.340  19.244  0.00  0.00     0.212 C 
ATOM     16  O   LIG d   1       8.821   0.490  18.213  0.00  0.00    -0.644 OA
ATOM     17  O   LIG d   1       7.076  -0.470  19.272  0.00  0.00    -0.644 OA
ENDBRANCH  11  15
BRANCH  12  18
ATOM     18  O   LIG d   1       6.178   2.155  20.514  0.00  0.00    -0.360 OA
ATOM     19  H   LIG d   1       6.153   3.082  20.153  0.00  0.00     0.217 HD
ENDBRANCH  12  18
ENDBRANCH   8   9
ENDBRANCH   7   8
ENDBRANCH   4   7
BRANCH   1  20
ATOM     20  S   LIG d   1       9.715  -4.324  25.013  0.00  0.00     0.247 S 
ATOM     21  O   LIG d   1      10.907  -5.117  25.259  0.00  0.00    -0.205 OA
ATOM     22  O   LIG d   1       8.632  -4.349  25.978  0.00  0.00    -0.205 OA
BRANCH  20  23
ATOM     23  N   LIG d   1       9.120  -4.870  23.512  0.00  0.00    -0.165 NA
ATOM     24  H   LIG d   1       9.480  -4.237  22.796  0.00  0.00     0.147 HD
BRANCH  23  25
ATOM     25  C   LIG d   1       7.714  -4.845  23.382  0.00  0.00     0.116 C 
ATOM     26  N   LIG d   1       7.280  -3.625  23.031  0.00  0.00    -0.248 NA
ATOM     27  C   LIG d   1       5.941  -3.457  23.005  0.00  0.00     0.118 C 
ATOM     28  C   LIG d   1       5.032  -4.486  23.199  0.00  0.00     0.019 C 
ATOM     29  C   LIG d   1       5.525  -5.762  23.457  0.00  0.00     0.005 C 
ATOM     30  C   LIG d   1       6.899  -5.949  23.554  0.00  0.00     0.045 C 
ENDBRANCH  23  25
ENDBRANCH  20  23
ENDBRANCH   1  20
TORSDOF 8
ENDMDL
MODEL 4
REMARK VINA RESULT:      -7.4     23.919     29.569
REMARK  8 active torsions:
REMARK  status: ('A' for Active; 'I' for Inactive)
REMARK    1  A    between atoms: S_1  and  N_7 
REMARK    2  A    between atoms: S_1  and  C_11 
REMARK    3  A    between atoms: O_4  and  C_22 
REMARK    4  A    between atoms: N_7  and  C_17 
REMARK    5  A    between atoms: N_8  and  N_10 
REMARK    6  A    between atoms: N_8  and  C_14 
REMARK    7  A    between atoms: N_10  and  C_18 
REMARK    8  A    between atoms: C_20  and  C_28 
ROOT
ATOM      1  C   LIG d   1       9.975  -0.019  22.652  0.00  0.00     0.075 A 
ATOM      2  C   LIG d   1       9.328   0.288  23.847  0.00  0.00     0.027 A 
ATOM      3  C   LIG d   1      10.524  -1.284  22.446  0.00  0.00     0.027 A 
ATOM      4  C   LIG d   1       9.834  -1.953  24.698  0.00  0.00     0.079 A 
ATOM      5  C   LIG d   1       9.269  -0.678  24.856  0.00  0.00     0.035 A 
ATOM      6  C   LIG d   1      10.455  -2.229  23.471  0.00  0.00     0.035 A 
ENDROOT
BRANCH   4   7
ATOM      7  N   LIG d   1       9.843  -2.923  25.642  0.00  0.00    -0.150 NA
BRANCH   7   8
ATOM      8  N   LIG d   1       8.535  -3.205  26.282  0.00  0.00    -0.150 NA
BRANCH   8   9
ATOM      9  C   LIG d   1       7.792  -4.189  25.700  0.00  0.00     0.080 A 
ATOM     10  C   LIG d   1       7.551  -4.152  24.299  0.00  0.00     0.054 A 
ATOM     11  C   LIG d   1       6.785  -5.128  23.609  0.00  0.00     0.076 A 
ATOM     12  C   LIG d   1       6.240  -6.171  24.377  0.00  0.00     0.082 A 
ATOM     13  C   LIG d   1       6.443  -6.241  25.750  0.00  0.00     0.040 A 
ATOM     14  C   LIG d   1       7.208  -5.261  26.395  0.00  0.00     0.036 A 
BRANCH  11  15
ATOM     15  C   LIG d   1       6.552  -5.069  22.110  0.00  0.00     0.212 C 
ATOM     16  O   LIG d   1       6.067  -3.962  21.661  0.00  0.00    -0.644 OA
ATOM     17  O   LIG d   1       6.834  -6.061  21.362  0.00  0.00    -0.644 OA
ENDBRANCH  11  15
BRANCH  12  18
ATOM     18  O   LIG d   1       5.482  -7.172  23.808  0.00  0.00    -0.360 OA
ATOM     19  H   LIG d   1       6.157  -7.867  23.579  0.00  0.00     0.217 HD
ENDBRANCH  12  18
ENDBRANCH   8   9
ENDBRANCH   7   8
ENDBRANCH   4   7
BRANCH   1  20
ATOM     20  S   LIG d   1      10.113   1.195  21.378  0.00  0.00     0.247 S 
ATOM     21  O   LIG d   1       8.910   2.011  21.380  0.00  0.00    -0.205 OA
ATOM     22  O   LIG d   1      11.411   1.841  21.435  0.00  0.00    -0.205 OA
BRANCH  20  23
ATOM     23  N   LIG d   1      10.025   0.276  19.946  0.00  0.00    -0.165 NA
ATOM     24  H   LIG d   1      10.596   0.751  19.246  0.00  0.00     0.147 HD
BRANCH  23  25
ATOM     25  C   LIG d   1       8.733   0.167  19.383  0.00  0.00     0.116 C 
ATOM     26  N   LIG d   1       8.638   0.870  18.245  0.00  0.00    -0.248 NA
ATOM     27  C   LIG d   1       7.408   0.940  17.693  0.00  0.00     0.118 C 
ATOM     28  C   LIG d   1       6.310   0.240  18.170  0.00  0.00     0.019 C 
ATOM     29  C   LIG d   1       6.475  -0.562  19.294  0.00  0.00     0.005 C 
ATOM     30  C   LIG d   1       7.716  -0.600  19.921  0.00  0.00     0.045 C 
ENDBRANCH  23  25
ENDBRANCH  20  23
ENDBRANCH   1  20
TORSDOF 8
ENDMDL
MODEL 5
REMARK VINA RESULT:      -7.3     17.976     22.096
REMARK  8 active torsions:
REMARK  status: ('A' for Active; 'I' for Inactive)
REMARK    1  A    between atoms: S_1  and  N_7 
REMARK    2  A    between atoms: S_1  and  C_11 
REMARK    3  A    between atoms: O_4  and  C_22 
REMARK    4  A    between atoms: N_7  and  C_17 
REMARK    5  A    between atoms: N_8  and  N_10 
REMARK    6  A    between atoms: N_8  and  C_14 
REMARK    7  A    between atoms: N_10  and  C_18 
REMARK    8  A    between atoms: C_20  and  C_28 
ROOT
ATOM      1  C   LIG d   1      20.059   1.594  -3.658  0.00  0.00     0.075 A 
ATOM      2  C   LIG d   1      19.903   0.772  -4.771  0.00  0.00     0.027 A 
ATOM      3  C   LIG d   1      19.996   1.065  -2.369  0.00  0.00     0.027 A 
ATOM      4  C   LIG d   1      19.544  -1.154  -3.300  0.00  0.00     0.079 A 
ATOM      5  C   LIG d   1      19.642  -0.589  -4.582  0.00  0.00     0.035 A 
ATOM      6  C   LIG d   1      19.731  -0.296  -2.207  0.00  0.00     0.035 A 
ENDROOT
BRANCH   4   7
ATOM      7  N   LIG d   1      19.262  -2.453  -3.043  0.00  0.00    -0.150 NA
BRANCH   7   8
ATOM      8  N   LIG d   1      17.901  -2.719  -2.514  0.00  0.00    -0.150 NA
BRANCH   8   9
ATOM      9  C   LIG d   1      17.050  -3.358  -3.367  0.00  0.00     0.080 A 
ATOM     10  C   LIG d   1      16.210  -2.594  -4.224  0.00  0.00     0.054 A 
ATOM     11  C   LIG d   1      15.290  -3.171  -5.138  0.00  0.00     0.076 A 
ATOM     12  C   LIG d   1      15.219  -4.574  -5.171  0.00  0.00     0.082 A 
ATOM     13  C   LIG d   1      16.015  -5.358  -4.344  0.00  0.00     0.040 A 
ATOM     14  C   LIG d   1      16.914  -4.752  -3.458  0.00  0.00     0.036 A 
BRANCH  11  15
ATOM     15  C   LIG d   1      14.413  -2.331  -6.049  0.00  0.00     0.212 C 
ATOM     16  O   LIG d   1      14.480  -2.612  -7.306  0.00  0.00    -0.644 OA
ATOM     17  O   LIG d   1      13.660  -1.418  -5.577  0.00  0.00    -0.644 OA
ENDBRANCH  11  15
BRANCH  12  18
ATOM     18  O   LIG d   1      14.361  -5.238  -6.022  0.00  0.00    -0.360 OA
ATOM     19  H   LIG d   1      14.834  -6.095  -6.199  0.00  0.00     0.217 HD
ENDBRANCH  12  18
ENDBRANCH   8   9
ENDBRANCH   7   8
ENDBRANCH   4   7
BRANCH   1  20
ATOM     20  S   LIG d   1      20.337   3.325  -3.862  0.00  0.00     0.247 S 
ATOM     21  O   LIG d   1      19.087   4.028  -3.631  0.00  0.00    -0.205 OA
ATOM     22  O   LIG d   1      21.527   3.734  -3.140  0.00  0.00    -0.205 OA
BRANCH  20  23
ATOM     23  N   LIG d   1      20.633   3.482  -5.533  0.00  0.00    -0.165 NA
ATOM     24  H   LIG d   1      21.619   3.726  -5.643  0.00  0.00     0.147 HD
BRANCH  23  25
ATOM     25  C   LIG d   1      19.905   4.508  -6.176  0.00  0.00     0.116 C 
ATOM     26  N   LIG d   1      20.402   5.717  -5.878  0.00  0.00    -0.248 NA
ATOM     27  C   LIG d   1      19.701   6.776  -6.337  0.00  0.00     0.118 C 
ATOM     28  C   LIG d   1      18.600   6.665  -7.173  0.00  0.00     0.019 C 
ATOM     29  C   LIG d   1      18.178   5.393  -7.544  0.00  0.00     0.005 C 
ATOM     30  C   LIG d   1      18.842   4.284  -7.033  0.00  0.00     0.045 C 
ENDBRANCH  23  25
ENDBRANCH  20  23
ENDBRANCH   1  20
TORSDOF 8
ENDMDL
MODEL 6
REMARK VINA RESULT:      -7.3      2.911      3.806
REMARK  8 active torsions:
REMARK  status: ('A' for Active; 'I' for Inactive)
REMARK    1  A    between atoms: S_1  and  N_7 
REMARK    2  A    between atoms: S_1  and  C_11 
REMARK    3  A    between atoms: O_4  and  C_22 
REMARK    4  A    between atoms: N_7  and  C_17 
REMARK    5  A    between atoms: N_8  and  N_10 
REMARK    6  A    between atoms: N_8  and  C_14 
REMARK    7  A    between atoms: N_10  and  C_18 
REMARK    8  A    between atoms: C_20  and  C_28 
ROOT
ATOM      1  C   LIG d   1       9.053  15.379   3.053  0.00  0.00     0.075 A 
ATOM      2  C   LIG d   1       8.157  16.361   3.468  0.00  0.00     0.027 A 
ATOM      3  C   LIG d   1       9.707  15.488   1.826  0.00  0.00     0.027 A 
ATOM      4  C   LIG d   1       8.508  17.572   1.367  0.00  0.00     0.079 A 
ATOM      5  C   LIG d   1       7.890  17.441   2.621  0.00  0.00     0.035 A 
ATOM      6  C   LIG d   1       9.421  16.574   0.997  0.00  0.00     0.035 A 
ENDROOT
BRANCH   4   7
ATOM      7  N   LIG d   1       8.272  18.571   0.484  0.00  0.00    -0.150 NA
BRANCH   7   8
ATOM      8  N   LIG d   1       9.456  19.047  -0.272  0.00  0.00    -0.150 NA
BRANCH   8   9
ATOM      9  C   LIG d   1      10.170  20.050   0.315  0.00  0.00     0.080 A 
ATOM     10  C   LIG d   1      10.942  19.774   1.477  0.00  0.00     0.054 A 
ATOM     11  C   LIG d   1      11.711  20.754   2.159  0.00  0.00     0.076 A 
ATOM     12  C   LIG d   1      11.681  22.060   1.642  0.00  0.00     0.082 A 
ATOM     13  C   LIG d   1      10.932  22.375   0.514  0.00  0.00     0.040 A 
ATOM     14  C   LIG d   1      10.190  21.380  -0.133  0.00  0.00     0.036 A 
BRANCH  11  15
ATOM     15  C   LIG d   1      12.535  20.429   3.391  0.00  0.00     0.212 C 
ATOM     16  O   LIG d   1      13.100  19.270   3.399  0.00  0.00    -0.644 OA
ATOM     17  O   LIG d   1      12.653  21.269   4.342  0.00  0.00    -0.644 OA
ENDBRANCH  11  15
BRANCH  12  18
ATOM     18  O   LIG d   1      12.392  23.088   2.226  0.00  0.00    -0.360 OA
ATOM     19  H   LIG d   1      13.222  23.130   1.678  0.00  0.00     0.217 HD
ENDBRANCH  12  18
ENDBRANCH   8   9
ENDBRANCH   7   8
ENDBRANCH   4   7
BRANCH   1  20
ATOM     20  S   LIG d   1       9.372  13.976   4.075  0.00  0.00     0.247 S 
ATOM     21  O   LIG d   1      10.750  14.036   4.533  0.00  0.00    -0.205 OA
ATOM     22  O   LIG d   1       8.307  13.807   5.046  0.00  0.00    -0.205 OA
BRANCH  20  23
ATOM     23  N   LIG d   1       9.324  12.671   2.981  0.00  0.00    -0.165 NA
ATOM     24  H   LIG d   1       9.711  13.004   2.097  0.00  0.00     0.147 HD
BRANCH  23  25
ATOM     25  C   LIG d   1       8.030  12.189   2.682  0.00  0.00     0.116 C 
ATOM     26  N   LIG d   1       7.726  11.118   3.429  0.00  0.00    -0.248 NA
ATOM     27  C   LIG d   1       6.563  10.499   3.133  0.00  0.00     0.118 C 
ATOM     28  C   LIG d   1       5.650  10.980   2.206  0.00  0.00     0.019 C 
ATOM     29  C   LIG d   1       5.956  12.155   1.526  0.00  0.00     0.005 C 
ATOM     30  C   LIG d   1       7.177  12.776   1.764  0.00  0.00     0.045 C 
ENDBRANCH  23  25
ENDBRANCH  20  23
ENDBRANCH   1  20
TORSDOF 8
ENDMDL
MODEL 7
REMARK VINA RESULT:      -7.1      1.487      2.557
REMARK  8 active torsions:
REMARK  status: ('A' for Active; 'I' for Inactive)
REMARK    1  A    between atoms: S_1  and  N_7 
REMARK    2  A    between atoms: S_1  and  C_11 
REMARK    3  A    between atoms: O_4  and  C_22 
REMARK    4  A    between atoms: N_7  and  C_17 
REMARK    5  A    between atoms: N_8  and  N_10 
REMARK    6  A    between atoms: N_8  and  C_14 
REMARK    7  A    between atoms: N_10  and  C_18 
REMARK    8  A    between atoms: C_20  and  C_28 
ROOT
ATOM      1  C   LIG d   1       8.439  14.287   3.129  0.00  0.00     0.075 A 
ATOM      2  C   LIG d   1       9.800  14.272   2.831  0.00  0.00     0.027 A 
ATOM      3  C   LIG d   1       7.592  15.221   2.535  0.00  0.00     0.027 A 
ATOM      4  C   LIG d   1       9.500  16.206   1.358  0.00  0.00     0.079 A 
ATOM      5  C   LIG d   1      10.316  15.232   1.957  0.00  0.00     0.035 A 
ATOM      6  C   LIG d   1       8.132  16.172   1.667  0.00  0.00     0.035 A 
ENDROOT
BRANCH   4   7
ATOM      7  N   LIG d   1       9.936  17.184   0.530  0.00  0.00    -0.150 NA
BRANCH   7   8
ATOM      8  N   LIG d   1      10.195  18.497   1.171  0.00  0.00    -0.150 NA
BRANCH   8   9
ATOM      9  C   LIG d   1       9.642  19.578   0.550  0.00  0.00     0.080 A 
ATOM     10  C   LIG d   1      10.227  20.862   0.723  0.00  0.00     0.054 A 
ATOM     11  C   LIG d   1       9.718  22.044   0.122  0.00  0.00     0.076 A 
ATOM     12  C   LIG d   1       8.568  21.909  -0.674  0.00  0.00     0.082 A 
ATOM     13  C   LIG d   1       7.959  20.674  -0.862  0.00  0.00     0.040 A 
ATOM     14  C   LIG d   1       8.493  19.530  -0.255  0.00  0.00     0.036 A 
BRANCH  11  15
ATOM     15  C   LIG d   1      10.369  23.401   0.315  0.00  0.00     0.212 C 
ATOM     16  O   LIG d   1      11.041  23.551   1.406  0.00  0.00    -0.644 OA
ATOM     17  O   LIG d   1      10.253  24.316  -0.563  0.00  0.00    -0.644 OA
ENDBRANCH  11  15
BRANCH  12  18
ATOM     18  O   LIG d   1       7.991  22.991  -1.306  0.00  0.00    -0.360 OA
ATOM     19  H   LIG d   1       8.714  23.314  -1.909  0.00  0.00     0.217 HD
ENDBRANCH  12  18
ENDBRANCH   8   9
ENDBRANCH   7   8
ENDBRANCH   4   7
BRANCH   1  20
ATOM     20  S   LIG d   1       7.766  13.121   4.271  0.00  0.00     0.247 S 
ATOM     21  O   LIG d   1       8.546  13.164   5.496  0.00  0.00    -0.205 OA
ATOM     22  O   LIG d   1       6.323  13.261   4.342  0.00  0.00    -0.205 OA
BRANCH  20  23
ATOM     23  N   LIG d   1       8.133  11.616   3.561  0.00  0.00    -0.165 NA
ATOM     24  H   LIG d   1       8.113  11.747   2.549  0.00  0.00     0.147 HD
BRANCH  23  25
ATOM     25  C   LIG d   1       7.210  10.583   3.839  0.00  0.00     0.116 C 
ATOM     26  N   LIG d   1       6.429  10.332   2.778  0.00  0.00    -0.248 NA
ATOM     27  C   LIG d   1       5.426   9.451   2.976  0.00  0.00     0.118 C 
ATOM     28  C   LIG d   1       5.253   8.732   4.150  0.00  0.00     0.019 C 
ATOM     29  C   LIG d   1       6.150   8.946   5.192  0.00  0.00     0.005 C 
ATOM     30  C   LIG d   1       7.153   9.896   5.038  0.00  0.00     0.045 C 
ENDBRANCH  23  25
ENDBRANCH  20  23
ENDBRANCH   1  20
TORSDOF 8
ENDMDL
MODEL 8
REMARK VINA RESULT:      -7.1      2.439      3.180
REMARK  8 active torsions:
REMARK  status: ('A' for Active; 'I' for Inactive)
REMARK    1  A    between atoms: S_1  and  N_7 
REMARK    2  A    between atoms: S_1  and  C_11 
REMARK    3  A    between atoms: O_4  and  C_22 
REMARK    4  A    between atoms: N_7  and  C_17 
REMARK    5  A    between atoms: N_8  and  N_10 
REMARK    6  A    between atoms: N_8  and  C_14 
REMARK    7  A    between atoms: N_10  and  C_18 
REMARK    8  A    between atoms: C_20  and  C_28 
ROOT
ATOM      1  C   LIG d   1      10.200  16.927   3.817  0.00  0.00     0.075 A 
ATOM      2  C   LIG d   1      10.906  17.956   4.435  0.00  0.00     0.027 A 
ATOM      3  C   LIG d   1       9.601  17.125   2.573  0.00  0.00     0.027 A 
ATOM      4  C   LIG d   1      10.362  19.452   2.573  0.00  0.00     0.079 A 
ATOM      5  C   LIG d   1      10.975  19.206   3.812  0.00  0.00     0.035 A 
ATOM      6  C   LIG d   1       9.680  18.382   1.973  0.00  0.00     0.035 A 
ENDROOT
BRANCH   4   7
ATOM      7  N   LIG d   1      10.359  20.642   1.928  0.00  0.00    -0.150 NA
BRANCH   7   8
ATOM      8  N   LIG d   1      10.264  20.569   0.450  0.00  0.00    -0.150 NA
BRANCH   8   9
ATOM      9  C   LIG d   1       9.808  21.695  -0.170  0.00  0.00     0.080 A 
ATOM     10  C   LIG d   1       8.690  21.611  -1.045  0.00  0.00     0.054 A 
ATOM     11  C   LIG d   1       8.150  22.726  -1.738  0.00  0.00     0.076 A 
ATOM     12  C   LIG d   1       8.779  23.967  -1.536  0.00  0.00     0.082 A 
ATOM     13  C   LIG d   1       9.880  24.092  -0.697  0.00  0.00     0.040 A 
ATOM     14  C   LIG d   1      10.381  22.968  -0.028  0.00  0.00     0.036 A 
BRANCH  11  15
ATOM     15  C   LIG d   1       6.949  22.610  -2.658  0.00  0.00     0.212 C 
ATOM     16  O   LIG d   1       5.949  21.940  -2.194  0.00  0.00    -0.644 OA
ATOM     17  O   LIG d   1       6.948  23.155  -3.809  0.00  0.00    -0.644 OA
ENDBRANCH  11  15
BRANCH  12  18
ATOM     18  O   LIG d   1       8.336  25.115  -2.158  0.00  0.00    -0.360 OA
ATOM     19  H   LIG d   1       7.965  24.780  -3.018  0.00  0.00     0.217 HD
ENDBRANCH  12  18
ENDBRANCH   8   9
ENDBRANCH   7   8
ENDBRANCH   4   7
BRANCH   1  20
ATOM     20  S   LIG d   1      10.050  15.354   4.603  0.00  0.00     0.247 S 
ATOM     21  O   LIG d   1      11.175  15.174   5.504  0.00  0.00    -0.205 OA
ATOM     22  O   LIG d   1       8.701  15.167   5.103  0.00  0.00    -0.205 OA
BRANCH  20  23
ATOM     23  N   LIG d   1      10.316  14.251   3.331  0.00  0.00    -0.165 NA
ATOM     24  H   LIG d   1      10.528  14.798   2.496  0.00  0.00     0.147 HD
BRANCH  23  25
ATOM     25  C   LIG d   1       9.206  13.444   2.997  0.00  0.00     0.116 C 
ATOM     26  N   LIG d   1       9.179  12.325   3.735  0.00  0.00    -0.248 NA
ATOM     27  C   LIG d   1       8.231  11.421   3.406  0.00  0.00     0.118 C 
ATOM     28  C   LIG d   1       7.247  11.649   2.456  0.00  0.00     0.019 C 
ATOM     29  C   LIG d   1       7.247  12.868   1.785  0.00  0.00     0.005 C 
ATOM     30  C   LIG d   1       8.252  13.790   2.057  0.00  0.00     0.045 C 
ENDBRANCH  23  25
ENDBRANCH  20  23
ENDBRANCH   1  20
TORSDOF 8
ENDMDL
MODEL 9
REMARK VINA RESULT:      -7.1      2.238      2.845
REMARK  8 active torsions:
REMARK  status: ('A' for Active; 'I' for Inactive)
REMARK    1  A    between atoms: S_1  and  N_7 
REMARK    2  A    between atoms: S_1  and  C_11 
REMARK    3  A    between atoms: O_4  and  C_22 
REMARK    4  A    between atoms: N_7  and  C_17 
REMARK    5  A    between atoms: N_8  and  N_10 
REMARK    6  A    between atoms: N_8  and  C_14 
REMARK    7  A    between atoms: N_10  and  C_18 
REMARK    8  A    between atoms: C_20  and  C_28 
ROOT
ATOM      1  C   LIG d   1       9.573  15.086   3.783  0.00  0.00     0.075 A 
ATOM      2  C   LIG d   1      10.057  14.651   2.551  0.00  0.00     0.027 A 
ATOM      3  C   LIG d   1       8.954  16.329   3.904  0.00  0.00     0.027 A 
ATOM      4  C   LIG d   1       9.359  16.765   1.529  0.00  0.00     0.079 A 
ATOM      5  C   LIG d   1       9.951  15.495   1.441  0.00  0.00     0.035 A 
ATOM      6  C   LIG d   1       8.863  17.155   2.782  0.00  0.00     0.035 A 
ENDROOT
BRANCH   4   7
ATOM      7  N   LIG d   1       9.252  17.646   0.506  0.00  0.00    -0.150 NA
BRANCH   7   8
ATOM      8  N   LIG d   1      10.369  18.613   0.376  0.00  0.00    -0.150 NA
BRANCH   8   9
ATOM      9  C   LIG d   1      10.006  19.916   0.198  0.00  0.00     0.080 A 
ATOM     10  C   LIG d   1       8.908  20.229  -0.651  0.00  0.00     0.054 A 
ATOM     11  C   LIG d   1       8.462  21.553  -0.901  0.00  0.00     0.076 A 
ATOM     12  C   LIG d   1       9.167  22.592  -0.271  0.00  0.00     0.082 A 
ATOM     13  C   LIG d   1      10.252  22.332   0.559  0.00  0.00     0.040 A 
ATOM     14  C   LIG d   1      10.659  21.011   0.784  0.00  0.00     0.036 A 
BRANCH  11  15
ATOM     15  C   LIG d   1       7.280  21.857  -1.803  0.00  0.00     0.212 C 
ATOM     16  O   LIG d   1       7.443  22.832  -2.632  0.00  0.00    -0.644 OA
ATOM     17  O   LIG d   1       6.207  21.173  -1.734  0.00  0.00    -0.644 OA
ENDBRANCH  11  15
BRANCH  12  18
ATOM     18  O   LIG d   1       8.818  23.916  -0.444  0.00  0.00    -0.360 OA
ATOM     19  H   LIG d   1       8.524  24.193   0.466  0.00  0.00     0.217 HD
ENDBRANCH  12  18
ENDBRANCH   8   9
ENDBRANCH   7   8
ENDBRANCH   4   7
BRANCH   1  20
ATOM     20  S   LIG d   1       9.740  14.066   5.214  0.00  0.00     0.247 S 
ATOM     21  O   LIG d   1      10.580  12.928   4.880  0.00  0.00    -0.205 OA
ATOM     22  O   LIG d   1      10.065  14.875   6.374  0.00  0.00    -0.205 OA
BRANCH  20  23
ATOM     23  N   LIG d   1       8.177  13.419   5.422  0.00  0.00    -0.165 NA
ATOM     24  H   LIG d   1       8.268  12.597   6.020  0.00  0.00     0.147 HD
BRANCH  23  25
ATOM     25  C   LIG d   1       7.553  12.971   4.236  0.00  0.00     0.116 C 
ATOM     26  N   LIG d   1       8.071  11.804   3.826  0.00  0.00    -0.248 NA
ATOM     27  C   LIG d   1       7.636  11.350   2.631  0.00  0.00     0.118 C 
ATOM     28  C   LIG d   1       6.626  11.955   1.899  0.00  0.00     0.019 C 
ATOM     29  C   LIG d   1       6.040  13.109   2.412  0.00  0.00     0.005 C 
ATOM     30  C   LIG d   1       6.515  13.635   3.608  0.00  0.00     0.045 C 
ENDBRANCH  23  25
ENDBRANCH  20  23
ENDBRANCH   1  20
TORSDOF 8
ENDMDL
