MODEL 1
REMARK VINA RESULT:      -7.6      0.000      0.000
REMARK  8 active torsions:
REMARK  status: ('A' for Active; 'I' for Inactive)
REMARK    1  A    between atoms: S_1  and  N_7 
REMARK    2  A    between atoms: S_1  and  C_11 
REMARK    3  A    between atoms: O_4  and  C_22 
REMARK    4  A    between atoms: N_7  and  C_17 
REMARK    5  A    between atoms: N_8  and  N_10 
REMARK    6  A    between atoms: N_8  and  C_14 
REMARK    7  A    between atoms: N_10  and  C_18 
REMARK    8  A    between atoms: C_20  and  C_28 
ROOT
ATOM      1  C   LIG d   1       1.061  -2.453 -13.121  0.00  0.00     0.075 A 
ATOM      2  C   LIG d   1       1.698  -1.348 -12.561  0.00  0.00     0.027 A 
ATOM      3  C   LIG d   1       1.438  -3.747 -12.764  0.00  0.00     0.027 A 
ATOM      4  C   LIG d   1       3.178  -2.839 -11.300  0.00  0.00     0.079 A 
ATOM      5  C   LIG d   1       2.751  -1.552 -11.664  0.00  0.00     0.035 A 
ATOM      6  C   LIG d   1       2.495  -3.924 -11.868  0.00  0.00     0.035 A 
ENDROOT
BRANCH   4   7
ATOM      7  N   LIG d   1       4.209  -3.110 -10.466  0.00  0.00    -0.150 NA
BRANCH   7   8
ATOM      8  N   LIG d   1       5.062  -1.950 -10.106  0.00  0.00    -0.150 NA
BRANCH   8   9
ATOM      9  C   LIG d   1       5.422  -1.866  -8.793  0.00  0.00     0.080 A 
ATOM     10  C   LIG d   1       5.808  -0.610  -8.250  0.00  0.00     0.054 A 
ATOM     11  C   LIG d   1       6.204  -0.427  -6.899  0.00  0.00     0.076 A 
ATOM     12  C   LIG d   1       6.214  -1.568  -6.078  0.00  0.00     0.082 A 
ATOM     13  C   LIG d   1       5.854  -2.817  -6.570  0.00  0.00     0.040 A 
ATOM     14  C   LIG d   1       5.465  -2.956  -7.909  0.00  0.00     0.036 A 
BRANCH  11  15
ATOM     15  C   LIG d   1       6.600   0.928  -6.343  0.00  0.00     0.212 C 
ATOM     16  O   LIG d   1       6.229   1.950  -7.036  0.00  0.00    -0.644 OA
ATOM     17  O   LIG d   1       7.253   1.025  -5.252  0.00  0.00    -0.644 OA
ENDBRANCH  11  15
BRANCH  12  18
ATOM     18  O   LIG d   1       6.581  -1.504  -4.750  0.00  0.00    -0.360 OA
ATOM     19  H   LIG d   1       7.423  -2.033  -4.721  0.00  0.00     0.217 HD
ENDBRANCH  12  18
ENDBRANCH   8   9
ENDBRANCH   7   8
ENDBRANCH   4   7
BRANCH   1  20
ATOM     20  S   LIG d   1      -0.237  -2.230 -14.297  0.00  0.00     0.247 S 
ATOM     21  O   LIG d   1      -1.069  -3.421 -14.305  0.00  0.00    -0.205 OA
ATOM     22  O   LIG d   1      -0.857  -0.930 -14.122  0.00  0.00    -0.205 OA
BRANCH  20  23
ATOM     23  N   LIG d   1       0.580  -2.248 -15.793  0.00  0.00    -0.165 NA
ATOM     24  H   LIG d   1       1.538  -2.547 -15.610  0.00  0.00     0.147 HD
BRANCH  23  25
ATOM     25  C   LIG d   1       0.679  -0.993 -16.434  0.00  0.00     0.116 C 
ATOM     26  N   LIG d   1      -0.277  -0.845 -17.363  0.00  0.00    -0.248 NA
ATOM     27  C   LIG d   1      -0.196   0.265 -18.126  0.00  0.00     0.118 C 
ATOM     28  C   LIG d   1       0.728   1.277 -17.916  0.00  0.00     0.019 C 
ATOM     29  C   LIG d   1       1.639   1.134 -16.873  0.00  0.00     0.005 C 
ATOM     30  C   LIG d   1       1.619  -0.031 -16.114  0.00  0.00     0.045 C 
ENDBRANCH  23  25
ENDBRANCH  20  23
ENDBRANCH   1  20
TORSDOF 8
ENDMDL
MODEL 2
REMARK VINA RESULT:      -7.5     32.562     35.794
REMARK  8 active torsions:
REMARK  status: ('A' for Active; 'I' for Inactive)
REMARK    1  A    between atoms: S_1  and  N_7 
REMARK    2  A    between atoms: S_1  and  C_11 
REMARK    3  A    between atoms: O_4  and  C_22 
REMARK    4  A    between atoms: N_7  and  C_17 
REMARK    5  A    between atoms: N_8  and  N_10 
REMARK    6  A    between atoms: N_8  and  C_14 
REMARK    7  A    between atoms: N_10  and  C_18 
REMARK    8  A    between atoms: C_20  and  C_28 
ROOT
ATOM      1  C   LIG d   1       8.608  -2.812  25.572  0.00  0.00     0.075 A 
ATOM      2  C   LIG d   1       9.525  -2.699  24.529  0.00  0.00     0.027 A 
ATOM      3  C   LIG d   1       8.183  -1.683  26.270  0.00  0.00     0.027 A 
ATOM      4  C   LIG d   1       9.664  -0.283  24.912  0.00  0.00     0.079 A 
ATOM      5  C   LIG d   1      10.046  -1.441  24.215  0.00  0.00     0.035 A 
ATOM      6  C   LIG d   1       8.721  -0.437  25.939  0.00  0.00     0.035 A 
ENDROOT
BRANCH   4   7
ATOM      7  N   LIG d   1      10.151   0.959  24.684  0.00  0.00    -0.150 NA
BRANCH   7   8
ATOM      8  N   LIG d   1      10.254   1.353  23.258  0.00  0.00    -0.150 NA
BRANCH   8   9
ATOM      9  C   LIG d   1       9.070   1.579  22.620  0.00  0.00     0.080 A 
ATOM     10  C   LIG d   1       8.741   0.824  21.460  0.00  0.00     0.054 A 
ATOM     11  C   LIG d   1       7.537   0.993  20.729  0.00  0.00     0.076 A 
ATOM     12  C   LIG d   1       6.643   1.974  21.191  0.00  0.00     0.082 A 
ATOM     13  C   LIG d   1       6.929   2.742  22.314  0.00  0.00     0.040 A 
ATOM     14  C   LIG d   1       8.127   2.542  23.012  0.00  0.00     0.036 A 
BRANCH  11  15
ATOM     15  C   LIG d   1       7.207   0.165  19.501  0.00  0.00     0.212 C 
ATOM     16  O   LIG d   1       6.078  -0.457  19.530  0.00  0.00    -0.644 OA
ATOM     17  O   LIG d   1       8.007   0.110  18.510  0.00  0.00    -0.644 OA
ENDBRANCH  11  15
BRANCH  12  18
ATOM     18  O   LIG d   1       5.444   2.221  20.556  0.00  0.00    -0.360 OA
ATOM     19  H   LIG d   1       5.574   1.815  19.658  0.00  0.00     0.217 HD
ENDBRANCH  12  18
ENDBRANCH   8   9
ENDBRANCH   7   8
ENDBRANCH   4   7
BRANCH   1  20
ATOM     20  S   LIG d   1       7.971  -4.394  26.029  0.00  0.00     0.247 S 
ATOM     21  O   LIG d   1       8.694  -5.418  25.294  0.00  0.00    -0.205 OA
ATOM     22  O   LIG d   1       7.864  -4.496  27.472  0.00  0.00    -0.205 OA
BRANCH  20  23
ATOM     23  N   LIG d   1       6.401  -4.394  25.364  0.00  0.00    -0.165 NA
ATOM     24  H   LIG d   1       5.887  -5.158  25.805  0.00  0.00     0.147 HD
BRANCH  23  25
ATOM     25  C   LIG d   1       6.341  -4.635  23.974  0.00  0.00     0.116 C 
ATOM     26  N   LIG d   1       6.070  -5.923  23.716  0.00  0.00    -0.248 NA
ATOM     27  C   LIG d   1       6.117  -6.290  22.417  0.00  0.00     0.118 C 
ATOM     28  C   LIG d   1       6.306  -5.398  21.372  0.00  0.00     0.019 C 
ATOM     29  C   LIG d   1       6.479  -4.051  21.677  0.00  0.00     0.005 C 
ATOM     30  C   LIG d   1       6.501  -3.657  23.010  0.00  0.00     0.045 C 
ENDBRANCH  23  25
ENDBRANCH  20  23
ENDBRANCH   1  20
TORSDOF 8
ENDMDL
MODEL 3
REMARK VINA RESULT:      -7.4      2.217      2.700
REMARK  8 active torsions:
REMARK  status: ('A' for Active; 'I' for Inactive)
REMARK    1  A    between atoms: S_1  and  N_7 
REMARK    2  A    between atoms: S_1  and  C_11 
REMARK    3  A    between atoms: O_4  and  C_22 
REMARK    4  A    between atoms: N_7  and  C_17 
REMARK    5  A    between atoms: N_8  and  N_10 
REMARK    6  A    between atoms: N_8  and  C_14 
REMARK    7  A    between atoms: N_10  and  C_18 
REMARK    8  A    between atoms: C_20  and  C_28 
ROOT
ATOM      1  C   LIG d   1       1.231  -2.405 -13.203  0.00  0.00     0.075 A 
ATOM      2  C   LIG d   1       1.967  -1.367 -12.636  0.00  0.00     0.027 A 
ATOM      3  C   LIG d   1       1.412  -3.720 -12.776  0.00  0.00     0.027 A 
ATOM      4  C   LIG d   1       3.151  -2.978 -11.220  0.00  0.00     0.079 A 
ATOM      5  C   LIG d   1       2.921  -1.665 -11.658  0.00  0.00     0.035 A 
ATOM      6  C   LIG d   1       2.373  -3.991 -11.800  0.00  0.00     0.035 A 
ENDROOT
BRANCH   4   7
ATOM      7  N   LIG d   1       4.078  -3.342 -10.304  0.00  0.00    -0.150 NA
BRANCH   7   8
ATOM      8  N   LIG d   1       5.082  -2.304  -9.964  0.00  0.00    -0.150 NA
BRANCH   8   9
ATOM      9  C   LIG d   1       5.384  -2.185  -8.639  0.00  0.00     0.080 A 
ATOM     10  C   LIG d   1       5.803  -0.926  -8.125  0.00  0.00     0.054 A 
ATOM     11  C   LIG d   1       6.143  -0.708  -6.765  0.00  0.00     0.076 A 
ATOM     12  C   LIG d   1       6.061  -1.815  -5.902  0.00  0.00     0.082 A 
ATOM     13  C   LIG d   1       5.666  -3.065  -6.364  0.00  0.00     0.040 A 
ATOM     14  C   LIG d   1       5.334  -3.239  -7.714  0.00  0.00     0.036 A 
BRANCH  11  15
ATOM     15  C   LIG d   1       6.576   0.648  -6.241  0.00  0.00     0.212 C 
ATOM     16  O   LIG d   1       6.089   1.670  -6.859  0.00  0.00    -0.644 OA
ATOM     17  O   LIG d   1       7.367   0.747  -5.246  0.00  0.00    -0.644 OA
ENDBRANCH  11  15
BRANCH  12  18
ATOM     18  O   LIG d   1       6.367  -1.715  -4.561  0.00  0.00    -0.360 OA
ATOM     19  H   LIG d   1       7.181  -2.280  -4.471  0.00  0.00     0.217 HD
ENDBRANCH  12  18
ENDBRANCH   8   9
ENDBRANCH   7   8
ENDBRANCH   4   7
BRANCH   1  20
ATOM     20  S   LIG d   1       0.057  -2.070 -14.479  0.00  0.00     0.247 S 
ATOM     21  O   LIG d   1       0.722  -2.183 -15.766  0.00  0.00    -0.205 OA
ATOM     22  O   LIG d   1      -1.168  -2.811 -14.243  0.00  0.00    -0.205 OA
BRANCH  20  23
ATOM     23  N   LIG d   1      -0.267  -0.408 -14.289  0.00  0.00    -0.165 NA
ATOM     24  H   LIG d   1       0.524  -0.002 -13.788  0.00  0.00     0.147 HD
BRANCH  23  25
ATOM     25  C   LIG d   1      -1.412  -0.105 -13.520  0.00  0.00     0.116 C 
ATOM     26  N   LIG d   1      -2.435   0.273 -14.300  0.00  0.00    -0.248 NA
ATOM     27  C   LIG d   1      -3.540   0.709 -13.658  0.00  0.00     0.118 C 
ATOM     28  C   LIG d   1      -3.697   0.667 -12.281  0.00  0.00     0.019 C 
ATOM     29  C   LIG d   1      -2.650   0.169 -11.513  0.00  0.00     0.005 C 
ATOM     30  C   LIG d   1      -1.475  -0.226 -12.144  0.00  0.00     0.045 C 
ENDBRANCH  23  25
ENDBRANCH  20  23
ENDBRANCH   1  20
TORSDOF 8
ENDMDL
MODEL 4
REMARK VINA RESULT:      -7.3     20.913     24.621
REMARK  8 active torsions:
REMARK  status: ('A' for Active; 'I' for Inactive)
REMARK    1  A    between atoms: S_1  and  N_7 
REMARK    2  A    between atoms: S_1  and  C_11 
REMARK    3  A    between atoms: O_4  and  C_22 
REMARK    4  A    between atoms: N_7  and  C_17 
REMARK    5  A    between atoms: N_8  and  N_10 
REMARK    6  A    between atoms: N_8  and  C_14 
REMARK    7  A    between atoms: N_10  and  C_18 
REMARK    8  A    between atoms: C_20  and  C_28 
ROOT
ATOM      1  C   LIG d   1       8.804  15.324   3.363  0.00  0.00     0.075 A 
ATOM      2  C   LIG d   1       7.603  15.975   3.637  0.00  0.00     0.027 A 
ATOM      3  C   LIG d   1       9.560  15.669   2.243  0.00  0.00     0.027 A 
ATOM      4  C   LIG d   1       7.860  17.310   1.599  0.00  0.00     0.079 A 
ATOM      5  C   LIG d   1       7.142  16.954   2.751  0.00  0.00     0.035 A 
ATOM      6  C   LIG d   1       9.076  16.648   1.372  0.00  0.00     0.035 A 
ENDROOT
BRANCH   4   7
ATOM      7  N   LIG d   1       7.459  18.222   0.683  0.00  0.00    -0.150 NA
BRANCH   7   8
ATOM      8  N   LIG d   1       8.540  18.823  -0.137  0.00  0.00    -0.150 NA
BRANCH   8   9
ATOM      9  C   LIG d   1       8.420  20.158  -0.387  0.00  0.00     0.080 A 
ATOM     10  C   LIG d   1       7.155  20.693  -0.758  0.00  0.00     0.054 A 
ATOM     11  C   LIG d   1       6.937  22.066  -1.042  0.00  0.00     0.076 A 
ATOM     12  C   LIG d   1       8.049  22.920  -0.954  0.00  0.00     0.082 A 
ATOM     13  C   LIG d   1       9.306  22.438  -0.604  0.00  0.00     0.040 A 
ATOM     14  C   LIG d   1       9.480  21.076  -0.327  0.00  0.00     0.036 A 
BRANCH  11  15
ATOM     15  C   LIG d   1       5.573  22.611  -1.425  0.00  0.00     0.212 C 
ATOM     16  O   LIG d   1       4.579  22.180  -0.725  0.00  0.00    -0.644 OA
ATOM     17  O   LIG d   1       5.444  23.448  -2.377  0.00  0.00    -0.644 OA
ENDBRANCH  11  15
BRANCH  12  18
ATOM     18  O   LIG d   1       7.949  24.272  -1.208  0.00  0.00    -0.360 OA
ATOM     19  H   LIG d   1       7.681  24.649  -0.327  0.00  0.00     0.217 HD
ENDBRANCH  12  18
ENDBRANCH   8   9
ENDBRANCH   7   8
ENDBRANCH   4   7
BRANCH   1  20
ATOM     20  S   LIG d   1       9.387  14.047   4.433  0.00  0.00     0.247 S 
ATOM     21  O   LIG d   1      10.794  14.280   4.714  0.00  0.00    -0.205 OA
ATOM     22  O   LIG d   1       8.464  13.852   5.535  0.00  0.00    -0.205 OA
BRANCH  20  23
ATOM     23  N   LIG d   1       9.355  12.659   3.444  0.00  0.00    -0.165 NA
ATOM     24  H   LIG d   1       9.648  12.948   2.509  0.00  0.00     0.147 HD
BRANCH  23  25
ATOM     25  C   LIG d   1       8.083  12.066   3.287  0.00  0.00     0.116 C 
ATOM     26  N   LIG d   1       7.870  11.121   4.214  0.00  0.00    -0.248 NA
ATOM     27  C   LIG d   1       6.737  10.400   4.077  0.00  0.00     0.118 C 
ATOM     28  C   LIG d   1       5.764  10.670   3.126  0.00  0.00     0.019 C 
ATOM     29  C   LIG d   1       5.976  11.728   2.247  0.00  0.00     0.005 C 
ATOM     30  C   LIG d   1       7.165  12.444   2.325  0.00  0.00     0.045 C 
ENDBRANCH  23  25
ENDBRANCH  20  23
ENDBRANCH   1  20
TORSDOF 8
ENDMDL
MODEL 5
REMARK VINA RESULT:      -7.2      2.143      2.387
REMARK  8 active torsions:
REMARK  status: ('A' for Active; 'I' for Inactive)
REMARK    1  A    between atoms: S_1  and  N_7 
REMARK    2  A    between atoms: S_1  and  C_11 
REMARK    3  A    between atoms: O_4  and  C_22 
REMARK    4  A    between atoms: N_7  and  C_17 
REMARK    5  A    between atoms: N_8  and  N_10 
REMARK    6  A    between atoms: N_8  and  C_14 
REMARK    7  A    between atoms: N_10  and  C_18 
REMARK    8  A    between atoms: C_20  and  C_28 
ROOT
ATOM      1  C   LIG d   1       1.082  -2.451 -13.121  0.00  0.00     0.075 A 
ATOM      2  C   LIG d   1       1.741  -1.355 -12.570  0.00  0.00     0.027 A 
ATOM      3  C   LIG d   1       1.421  -3.749 -12.742  0.00  0.00     0.027 A 
ATOM      4  C   LIG d   1       3.167  -2.865 -11.270  0.00  0.00     0.079 A 
ATOM      5  C   LIG d   1       2.777  -1.573 -11.657  0.00  0.00     0.035 A 
ATOM      6  C   LIG d   1       2.462  -3.940 -11.831  0.00  0.00     0.035 A 
ENDROOT
BRANCH   4   7
ATOM      7  N   LIG d   1       4.180  -3.150 -10.418  0.00  0.00    -0.150 NA
BRANCH   7   8
ATOM      8  N   LIG d   1       5.069  -2.012 -10.079  0.00  0.00    -0.150 NA
BRANCH   8   9
ATOM      9  C   LIG d   1       5.422  -1.909  -8.765  0.00  0.00     0.080 A 
ATOM     10  C   LIG d   1       5.815  -0.646  -8.242  0.00  0.00     0.054 A 
ATOM     11  C   LIG d   1       6.204  -0.444  -6.892  0.00  0.00     0.076 A 
ATOM     12  C   LIG d   1       6.200  -1.570  -6.052  0.00  0.00     0.082 A 
ATOM     13  C   LIG d   1       5.831  -2.824  -6.524  0.00  0.00     0.040 A 
ATOM     14  C   LIG d   1       5.450  -2.983  -7.863  0.00  0.00     0.036 A 
BRANCH  11  15
ATOM     15  C   LIG d   1       6.610   0.917  -6.357  0.00  0.00     0.212 C 
ATOM     16  O   LIG d   1       6.228   1.932  -7.055  0.00  0.00    -0.644 OA
ATOM     17  O   LIG d   1       7.279   1.026  -5.278  0.00  0.00    -0.644 OA
ENDBRANCH  11  15
BRANCH  12  18
ATOM     18  O   LIG d   1       6.558  -1.486  -4.722  0.00  0.00    -0.360 OA
ATOM     19  H   LIG d   1       7.395  -2.022  -4.678  0.00  0.00     0.217 HD
ENDBRANCH  12  18
ENDBRANCH   8   9
ENDBRANCH   7   8
ENDBRANCH   4   7
BRANCH   1  20
ATOM     20  S   LIG d   1      -0.195  -2.212 -14.317  0.00  0.00     0.247 S 
ATOM     21  O   LIG d   1      -1.366  -1.672 -13.647  0.00  0.00    -0.205 OA
ATOM     22  O   LIG d   1       0.331  -1.535 -15.487  0.00  0.00    -0.205 OA
BRANCH  20  23
ATOM     23  N   LIG d   1      -0.627  -3.801 -14.755  0.00  0.00    -0.165 NA
ATOM     24  H   LIG d   1      -0.167  -4.432 -14.097  0.00  0.00     0.147 HD
BRANCH  23  25
ATOM     25  C   LIG d   1      -0.202  -4.203 -16.041  0.00  0.00     0.116 C 
ATOM     26  N   LIG d   1      -1.171  -4.025 -16.951  0.00  0.00    -0.248 NA
ATOM     27  C   LIG d   1      -0.915  -4.498 -18.190  0.00  0.00     0.118 C 
ATOM     28  C   LIG d   1       0.308  -5.028 -18.573  0.00  0.00     0.019 C 
ATOM     29  C   LIG d   1       1.324  -5.099 -17.625  0.00  0.00     0.005 C 
ATOM     30  C   LIG d   1       1.065  -4.680 -16.325  0.00  0.00     0.045 C 
ENDBRANCH  23  25
ENDBRANCH  20  23
ENDBRANCH   1  20
TORSDOF 8
ENDMDL
MODEL 6
REMARK VINA RESULT:      -7.1     10.988     12.143
REMARK  8 active torsions:
REMARK  status: ('A' for Active; 'I' for Inactive)
REMARK    1  A    between atoms: S_1  and  N_7 
REMARK    2  A    between atoms: S_1  and  C_11 
REMARK    3  A    between atoms: O_4  and  C_22 
REMARK    4  A    between atoms: N_7  and  C_17 
REMARK    5  A    between atoms: N_8  and  N_10 
REMARK    6  A    between atoms: N_8  and  C_14 
REMARK    7  A    between atoms: N_10  and  C_18 
REMARK    8  A    between atoms: C_20  and  C_28 
ROOT
ATOM      1  C   LIG d   1      13.593  -3.539 -10.446  0.00  0.00     0.075 A 
ATOM      2  C   LIG d   1      14.717  -2.871  -9.965  0.00  0.00     0.027 A 
ATOM      3  C   LIG d   1      13.115  -4.678  -9.801  0.00  0.00     0.027 A 
ATOM      4  C   LIG d   1      14.950  -4.539  -8.186  0.00  0.00     0.079 A 
ATOM      5  C   LIG d   1      15.385  -3.379  -8.848  0.00  0.00     0.035 A 
ATOM      6  C   LIG d   1      13.802  -5.168  -8.688  0.00  0.00     0.035 A 
ENDROOT
BRANCH   4   7
ATOM      7  N   LIG d   1      15.566  -5.105  -7.122  0.00  0.00    -0.150 NA
BRANCH   7   8
ATOM      8  N   LIG d   1      14.790  -5.099  -5.857  0.00  0.00    -0.150 NA
BRANCH   8   9
ATOM      9  C   LIG d   1      15.013  -4.037  -5.031  0.00  0.00     0.080 A 
ATOM     10  C   LIG d   1      14.344  -2.805  -5.274  0.00  0.00     0.054 A 
ATOM     11  C   LIG d   1      14.519  -1.646  -4.473  0.00  0.00     0.076 A 
ATOM     12  C   LIG d   1      15.413  -1.746  -3.394  0.00  0.00     0.082 A 
ATOM     13  C   LIG d   1      16.095  -2.928  -3.126  0.00  0.00     0.040 A 
ATOM     14  C   LIG d   1      15.893  -4.052  -3.938  0.00  0.00     0.036 A 
BRANCH  11  15
ATOM     15  C   LIG d   1      13.784  -0.348  -4.750  0.00  0.00     0.212 C 
ATOM     16  O   LIG d   1      13.855   0.091  -5.960  0.00  0.00    -0.644 OA
ATOM     17  O   LIG d   1      13.137   0.249  -3.829  0.00  0.00    -0.644 OA
ENDBRANCH  11  15
BRANCH  12  18
ATOM     18  O   LIG d   1      15.656  -0.682  -2.551  0.00  0.00    -0.360 OA
ATOM     19  H   LIG d   1      15.097  -0.891  -1.755  0.00  0.00     0.217 HD
ENDBRANCH  12  18
ENDBRANCH   8   9
ENDBRANCH   7   8
ENDBRANCH   4   7
BRANCH   1  20
ATOM     20  S   LIG d   1      12.758  -2.953 -11.887  0.00  0.00     0.247 S 
ATOM     21  O   LIG d   1      11.440  -3.560 -11.941  0.00  0.00    -0.205 OA
ATOM     22  O   LIG d   1      12.882  -1.511 -11.989  0.00  0.00    -0.205 OA
BRANCH  20  23
ATOM     23  N   LIG d   1      13.630  -3.667 -13.165  0.00  0.00    -0.165 NA
ATOM     24  H   LIG d   1      14.299  -4.315 -12.749  0.00  0.00     0.147 HD
BRANCH  23  25
ATOM     25  C   LIG d   1      14.391  -2.768 -13.945  0.00  0.00     0.116 C 
ATOM     26  N   LIG d   1      15.650  -2.679 -13.492  0.00  0.00    -0.248 NA
ATOM     27  C   LIG d   1      16.429  -1.749 -14.086  0.00  0.00     0.118 C 
ATOM     28  C   LIG d   1      16.032  -1.000 -15.183  0.00  0.00     0.019 C 
ATOM     29  C   LIG d   1      14.752  -1.198 -15.689  0.00  0.00     0.005 C 
ATOM     30  C   LIG d   1      13.906  -2.102 -15.056  0.00  0.00     0.045 C 
ENDBRANCH  23  25
ENDBRANCH  20  23
ENDBRANCH   1  20
TORSDOF 8
ENDMDL
MODEL 7
REMARK VINA RESULT:      -7.1     10.856     15.842
REMARK  8 active torsions:
REMARK  status: ('A' for Active; 'I' for Inactive)
REMARK    1  A    between atoms: S_1  and  N_7 
REMARK    2  A    between atoms: S_1  and  C_11 
REMARK    3  A    between atoms: O_4  and  C_22 
REMARK    4  A    between atoms: N_7  and  C_17 
REMARK    5  A    between atoms: N_8  and  N_10 
REMARK    6  A    between atoms: N_8  and  C_14 
REMARK    7  A    between atoms: N_10  and  C_18 
REMARK    8  A    between atoms: C_20  and  C_28 
ROOT
ATOM      1  C   LIG d   1      15.689  -5.705  -6.111  0.00  0.00     0.075 A 
ATOM      2  C   LIG d   1      14.371  -5.511  -5.707  0.00  0.00     0.027 A 
ATOM      3  C   LIG d   1      16.087  -5.393  -7.411  0.00  0.00     0.027 A 
ATOM      4  C   LIG d   1      13.793  -4.735  -7.957  0.00  0.00     0.079 A 
ATOM      5  C   LIG d   1      13.437  -5.035  -6.633  0.00  0.00     0.035 A 
ATOM      6  C   LIG d   1      15.135  -4.922  -8.318  0.00  0.00     0.035 A 
ENDROOT
BRANCH   4   7
ATOM      7  N   LIG d   1      12.937  -4.303  -8.914  0.00  0.00    -0.150 NA
BRANCH   7   8
ATOM      8  N   LIG d   1      12.383  -5.357  -9.798  0.00  0.00    -0.150 NA
BRANCH   8   9
ATOM      9  C   LIG d   1      12.462  -5.108 -11.137  0.00  0.00     0.080 A 
ATOM     10  C   LIG d   1      12.181  -3.802 -11.626  0.00  0.00     0.054 A 
ATOM     11  C   LIG d   1      12.233  -3.452 -13.001  0.00  0.00     0.076 A 
ATOM     12  C   LIG d   1      12.573  -4.471 -13.906  0.00  0.00     0.082 A 
ATOM     13  C   LIG d   1      12.846  -5.763 -13.472  0.00  0.00     0.040 A 
ATOM     14  C   LIG d   1      12.788  -6.069 -12.106  0.00  0.00     0.036 A 
BRANCH  11  15
ATOM     15  C   LIG d   1      11.939  -2.047 -13.494  0.00  0.00     0.212 C 
ATOM     16  O   LIG d   1      12.276  -1.090 -12.698  0.00  0.00    -0.644 OA
ATOM     17  O   LIG d   1      11.399  -1.850 -14.631  0.00  0.00    -0.644 OA
ENDBRANCH  11  15
BRANCH  12  18
ATOM     18  O   LIG d   1      12.653  -4.240 -15.263  0.00  0.00    -0.360 OA
ATOM     19  H   LIG d   1      13.480  -3.694 -15.352  0.00  0.00     0.217 HD
ENDBRANCH  12  18
ENDBRANCH   8   9
ENDBRANCH   7   8
ENDBRANCH   4   7
BRANCH   1  20
ATOM     20  S   LIG d   1      16.880  -6.355  -4.981  0.00  0.00     0.247 S 
ATOM     21  O   LIG d   1      16.728  -7.799  -4.923  0.00  0.00    -0.205 OA
ATOM     22  O   LIG d   1      18.189  -5.787  -5.247  0.00  0.00    -0.205 OA
BRANCH  20  23
ATOM     23  N   LIG d   1      16.337  -5.789  -3.468  0.00  0.00    -0.165 NA
ATOM     24  H   LIG d   1      15.327  -5.660  -3.539  0.00  0.00     0.147 HD
BRANCH  23  25
ATOM     25  C   LIG d   1      16.863  -4.538  -3.074  0.00  0.00     0.116 C 
ATOM     26  N   LIG d   1      17.962  -4.688  -2.322  0.00  0.00    -0.248 NA
ATOM     27  C   LIG d   1      18.471  -3.559  -1.784  0.00  0.00     0.118 C 
ATOM     28  C   LIG d   1      17.994  -2.289  -2.067  0.00  0.00     0.019 C 
ATOM     29  C   LIG d   1      16.915  -2.168  -2.937  0.00  0.00     0.005 C 
ATOM     30  C   LIG d   1      16.330  -3.319  -3.453  0.00  0.00     0.045 C 
ENDBRANCH  23  25
ENDBRANCH  20  23
ENDBRANCH   1  20
TORSDOF 8
ENDMDL
MODEL 8
REMARK VINA RESULT:      -7.1     31.435     35.376
REMARK  8 active torsions:
REMARK  status: ('A' for Active; 'I' for Inactive)
REMARK    1  A    between atoms: S_1  and  N_7 
REMARK    2  A    between atoms: S_1  and  C_11 
REMARK    3  A    between atoms: O_4  and  C_22 
REMARK    4  A    between atoms: N_7  and  C_17 
REMARK    5  A    between atoms: N_8  and  N_10 
REMARK    6  A    between atoms: N_8  and  C_14 
REMARK    7  A    between atoms: N_10  and  C_18 
REMARK    8  A    between atoms: C_20  and  C_28 
ROOT
ATOM      1  C   LIG d   1       7.753  -0.084  24.111  0.00  0.00     0.075 A 
ATOM      2  C   LIG d   1       8.951  -0.792  24.162  0.00  0.00     0.027 A 
ATOM      3  C   LIG d   1       6.718  -0.373  25.000  0.00  0.00     0.027 A 
ATOM      4  C   LIG d   1       8.062  -2.167  25.985  0.00  0.00     0.079 A 
ATOM      5  C   LIG d   1       9.091  -1.827  25.092  0.00  0.00     0.035 A 
ATOM      6  C   LIG d   1       6.881  -1.414  25.917  0.00  0.00     0.035 A 
ENDROOT
BRANCH   4   7
ATOM      7  N   LIG d   1       8.116  -3.176  26.887  0.00  0.00    -0.150 NA
BRANCH   7   8
ATOM      8  N   LIG d   1       8.306  -4.532  26.317  0.00  0.00    -0.150 NA
BRANCH   8   9
ATOM      9  C   LIG d   1       7.252  -5.027  25.606  0.00  0.00     0.080 A 
ATOM     10  C   LIG d   1       7.191  -4.812  24.201  0.00  0.00     0.054 A 
ATOM     11  C   LIG d   1       6.132  -5.284  23.381  0.00  0.00     0.076 A 
ATOM     12  C   LIG d   1       5.098  -5.990  24.019  0.00  0.00     0.082 A 
ATOM     13  C   LIG d   1       5.114  -6.215  25.391  0.00  0.00     0.040 A 
ATOM     14  C   LIG d   1       6.178  -5.736  26.166  0.00  0.00     0.036 A 
BRANCH  11  15
ATOM     15  C   LIG d   1       6.097  -5.049  21.882  0.00  0.00     0.212 C 
ATOM     16  O   LIG d   1       6.356  -6.077  21.147  0.00  0.00    -0.644 OA
ATOM     17  O   LIG d   1       5.819  -3.902  21.403  0.00  0.00    -0.644 OA
ENDBRANCH  11  15
BRANCH  12  18
ATOM     18  O   LIG d   1       4.022  -6.494  23.318  0.00  0.00    -0.360 OA
ATOM     19  H   LIG d   1       3.246  -6.262  23.895  0.00  0.00     0.217 HD
ENDBRANCH  12  18
ENDBRANCH   8   9
ENDBRANCH   7   8
ENDBRANCH   4   7
BRANCH   1  20
ATOM     20  S   LIG d   1       7.525   1.193  22.914  0.00  0.00     0.247 S 
ATOM     21  O   LIG d   1       7.389   2.463  23.607  0.00  0.00    -0.205 OA
ATOM     22  O   LIG d   1       8.501   1.065  21.849  0.00  0.00    -0.205 OA
BRANCH  20  23
ATOM     23  N   LIG d   1       5.978   0.866  22.278  0.00  0.00    -0.165 NA
ATOM     24  H   LIG d   1       5.637   0.020  22.735  0.00  0.00     0.147 HD
BRANCH  23  25
ATOM     25  C   LIG d   1       5.946   0.600  20.891  0.00  0.00     0.116 C 
ATOM     26  N   LIG d   1       5.597   1.691  20.195  0.00  0.00    -0.248 NA
ATOM     27  C   LIG d   1       5.410   1.514  18.869  0.00  0.00     0.118 C 
ATOM     28  C   LIG d   1       5.673   0.324  18.208  0.00  0.00     0.019 C 
ATOM     29  C   LIG d   1       6.135  -0.757  18.952  0.00  0.00     0.005 C 
ATOM     30  C   LIG d   1       6.273  -0.621  20.329  0.00  0.00     0.045 C 
ENDBRANCH  23  25
ENDBRANCH  20  23
ENDBRANCH   1  20
TORSDOF 8
ENDMDL
MODEL 9
REMARK VINA RESULT:      -7.0     11.783     17.072
REMARK  8 active torsions:
REMARK  status: ('A' for Active; 'I' for Inactive)
REMARK    1  A    between atoms: S_1  and  N_7 
REMARK    2  A    between atoms: S_1  and  C_11 
REMARK    3  A    between atoms: O_4  and  C_22 
REMARK    4  A    between atoms: N_7  and  C_17 
REMARK    5  A    between atoms: N_8  and  N_10 
REMARK    6  A    between atoms: N_8  and  C_14 
REMARK    7  A    between atoms: N_10  and  C_18 
REMARK    8  A    between atoms: C_20  and  C_28 
ROOT
ATOM      1  C   LIG d   1      16.037  -2.757  -3.835  0.00  0.00     0.075 A 
ATOM      2  C   LIG d   1      15.031  -1.911  -4.295  0.00  0.00     0.027 A 
ATOM      3  C   LIG d   1      16.080  -4.092  -4.235  0.00  0.00     0.027 A 
ATOM      4  C   LIG d   1      14.032  -3.771  -5.538  0.00  0.00     0.079 A 
ATOM      5  C   LIG d   1      14.038  -2.427  -5.134  0.00  0.00     0.035 A 
ATOM      6  C   LIG d   1      15.076  -4.584  -5.071  0.00  0.00     0.035 A 
ENDROOT
BRANCH   4   7
ATOM      7  N   LIG d   1      13.088  -4.345  -6.319  0.00  0.00    -0.150 NA
BRANCH   7   8
ATOM      8  N   LIG d   1      13.589  -5.329  -7.310  0.00  0.00    -0.150 NA
BRANCH   8   9
ATOM      9  C   LIG d   1      13.213  -5.110  -8.603  0.00  0.00     0.080 A 
ATOM     10  C   LIG d   1      13.943  -4.185  -9.399  0.00  0.00     0.054 A 
ATOM     11  C   LIG d   1      13.623  -3.889 -10.750  0.00  0.00     0.076 A 
ATOM     12  C   LIG d   1      12.515  -4.554 -11.302  0.00  0.00     0.082 A 
ATOM     13  C   LIG d   1      11.768  -5.459 -10.557  0.00  0.00     0.040 A 
ATOM     14  C   LIG d   1      12.118  -5.727  -9.228  0.00  0.00     0.036 A 
BRANCH  11  15
ATOM     15  C   LIG d   1      14.426  -2.905 -11.580  0.00  0.00     0.212 C 
ATOM     16  O   LIG d   1      15.699  -2.908 -11.378  0.00  0.00    -0.644 OA
ATOM     17  O   LIG d   1      13.856  -2.138 -12.423  0.00  0.00    -0.644 OA
ENDBRANCH  11  15
BRANCH  12  18
ATOM     18  O   LIG d   1      12.116  -4.342 -12.606  0.00  0.00    -0.360 OA
ATOM     19  H   LIG d   1      11.608  -3.488 -12.552  0.00  0.00     0.217 HD
ENDBRANCH  12  18
ENDBRANCH   8   9
ENDBRANCH   7   8
ENDBRANCH   4   7
BRANCH   1  20
ATOM     20  S   LIG d   1      17.274  -2.150  -2.731  0.00  0.00     0.247 S 
ATOM     21  O   LIG d   1      18.474  -1.853  -3.495  0.00  0.00    -0.205 OA
ATOM     22  O   LIG d   1      16.716  -1.134  -1.858  0.00  0.00    -0.205 OA
BRANCH  20  23
ATOM     23  N   LIG d   1      17.671  -3.517  -1.794  0.00  0.00    -0.165 NA
ATOM     24  H   LIG d   1      17.418  -3.304  -0.828  0.00  0.00     0.147 HD
BRANCH  23  25
ATOM     25  C   LIG d   1      19.044  -3.849  -1.772  0.00  0.00     0.116 C 
ATOM     26  N   LIG d   1      19.335  -4.772  -2.701  0.00  0.00    -0.248 NA
ATOM     27  C   LIG d   1      20.595  -5.257  -2.681  0.00  0.00     0.118 C 
ATOM     28  C   LIG d   1      21.593  -4.769  -1.851  0.00  0.00     0.019 C 
ATOM     29  C   LIG d   1      21.277  -3.737  -0.973  0.00  0.00     0.005 C 
ATOM     30  C   LIG d   1      19.970  -3.265  -0.927  0.00  0.00     0.045 C 
ENDBRANCH  23  25
ENDBRANCH  20  23
ENDBRANCH   1  20
TORSDOF 8
ENDMDL
