REMARK  1 active torsions:
REMARK  status: ('A' for Active; 'I' for Inactive)
REMARK    1  A    between atoms: C_3  and  C_7 
ROOT
ATOM      1  N   LIG d   1       7.104 -11.881  21.050  0.00  0.00    -0.067 N 
ATOM      2  C   LIG d   1       6.756 -12.552  19.729  0.00  0.00     0.222 C 
ATOM      3  C   LIG d   1       6.907 -11.388  18.745  0.00  0.00     0.040 C 
ATOM      4  C   LIG d   1       7.953 -10.446  19.337  0.00  0.00     0.030 C 
ATOM      5  C   LIG d   1       8.223 -10.922  20.755  0.00  0.00     0.235 C 
ATOM      6  C   LIG d   1       7.360 -12.779  22.218  0.00  0.00     0.270 C 
ATOM      7  H   LIG d   1       6.285 -11.312  21.300  0.00  0.00     0.280 HD
ENDROOT
BRANCH   2   8
ATOM      8  C   LIG d   1       7.548 -13.794  19.408  0.00  0.00    -0.010 A 
ATOM      9  C   LIG d   1       8.777 -13.692  18.739  0.00  0.00     0.012 A 
ATOM     10  C   LIG d   1       9.500 -14.838  18.413  0.00  0.00     0.020 A 
ATOM     11  C   LIG d   1       8.969 -16.065  18.760  0.00  0.00     0.116 A 
ATOM     12  N   LIG d   1       7.790 -16.207  19.399  0.00  0.00    -0.273 NA
ATOM     13  C   LIG d   1       7.117 -15.082  19.718  0.00  0.00     0.125 A 
ENDBRANCH   2   8
TORSDOF 1
