MODEL 1
REMARK minimizedAffinity -5.6461792REMARK CNNscore 0.47964853REMARK CNNaffinity 5.62279224REMARK  10 active torsions:
REMARK  status: ('A' for Active; 'I' for Inactive)
REMARK       I    between atoms: N_6  and  C_20 
REMARK    1  A    between atoms: N_6  and  C_21 
REMARK    2  A    between atoms: N_6  and  C_24 
REMARK    3  A    between atoms: N_7  and  C_14 
REMARK    4  A    between atoms: N_7  and  C_22 
REMARK    5  A    between atoms: N_9  and  C_35 
REMARK    6  A    between atoms: C_12  and  C_14 
REMARK    7  A    between atoms: C_15  and  C_20 
REMARK    8  A    between atoms: C_21  and  C_23 
REMARK    9  A    between atoms: C_23  and  C_31 
REMARK   10  A    between atoms: C_30  and  C_35 
ROOT
ATOM      1  N   LIG d   1      28.378  -9.767  20.496  0.00  0.00    -0.337 N 
ATOM      2  N   LIG d   1      26.308 -10.413  20.030  0.00  0.00    -0.232 NA
ATOM      3  C   LIG d   1      28.339 -11.112  20.783  0.00  0.00     0.064 A 
ATOM      4  C   LIG d   1      27.119  -9.373  20.098  0.00  0.00     0.120 A 
ATOM      5  C   LIG d   1      27.044 -11.496  20.444  0.00  0.00     0.086 A 
ATOM      6  C   LIG d   1      27.592 -13.766  21.062  0.00  0.00     0.035 A 
ATOM      7  C   LIG d   1      26.665 -12.842  20.550  0.00  0.00     0.051 A 
ATOM      8  C   LIG d   1      29.291 -12.015  21.269  0.00  0.00     0.033 A 
ATOM      9  C   LIG d   1      28.888 -13.348  21.405  0.00  0.00     0.019 A 
ATOM     10  C   LIG d   1      29.543  -8.919  20.562  0.00  0.00     0.158 C 
ENDROOT
BRANCH   4  11
ATOM     11  C   LIG d   1      26.737  -7.960  19.764  0.00  0.00     0.171 C 
BRANCH  11  12
ATOM     12  N   LIG d   1      26.638  -7.106  20.945  0.00  0.00    -0.286 NA
ATOM     13  H   LIG d   1      27.555  -7.051  21.396  0.00  0.00     0.128 HD
BRANCH  12  14
ATOM     14  C   LIG d   1      26.053  -5.840  20.819  0.00  0.00     0.008 A 
ATOM     15  C   LIG d   1      26.092  -4.873  21.832  0.00  0.00     0.024 A 
ATOM     16  C   LIG d   1      25.566  -3.590  21.634  0.00  0.00     0.017 A 
ATOM     17  C   LIG d   1      25.010  -3.237  20.400  0.00  0.00     0.009 A 
ATOM     18  C   LIG d   1      25.014  -4.174  19.365  0.00  0.00     0.017 A 
ATOM     19  C   LIG d   1      25.540  -5.454  19.573  0.00  0.00     0.024 A 
BRANCH  17  20
ATOM     20  C   LIG d   1      24.423  -1.892  20.188  0.00  0.00     0.123 C 
ATOM     21  N   LIG d   1      23.180  -1.671  20.561  0.00  0.00    -0.284 NA
ATOM     22  H   LIG d   1      22.833  -0.720  20.388  0.00  0.00     0.188 HD
BRANCH  20  23
ATOM     23  N   LIG d   1      25.082  -0.928  19.674  0.00  0.00    -0.384 N 
ATOM     24  H   LIG d   1      24.602  -0.040  19.582  0.00  0.00     0.157 HD
ATOM     25  H   LIG d   1      26.055  -1.020  19.416  0.00  0.00     0.157 HD
ENDBRANCH  20  23
ENDBRANCH  17  20
ENDBRANCH  12  14
ENDBRANCH  11  12
ENDBRANCH   4  11
BRANCH   6  26
ATOM     26  C   LIG d   1      27.288 -15.226  21.144  0.00  0.00     0.259 C 
ATOM     27  O   LIG d   1      27.801 -15.940  20.276  0.00  0.00    -0.267 OA
ATOM     28  N   LIG d   1      26.381 -15.714  22.096  0.00  0.00    -0.298 N 
BRANCH  28  29
ATOM     29  C   LIG d   1      25.783 -17.034  21.833  0.00  0.00     0.144 C 
BRANCH  29  30
ATOM     30  C   LIG d   1      25.391 -17.780  23.103  0.00  0.00     0.133 C 
BRANCH  30  31
ATOM     31  C   LIG d   1      23.889 -17.914  23.296  0.00  0.00     0.174 C 
ATOM     32  O   LIG d   1      23.185 -17.425  22.369  0.00  0.00    -0.648 OA
ATOM     33  O   LIG d   1      23.517 -18.521  24.340  0.00  0.00    -0.648 OA
ENDBRANCH  30  31
ENDBRANCH  29  30
ENDBRANCH  28  29
BRANCH  28  34
ATOM     34  C   LIG d   1      26.296 -15.170  23.413  0.00  0.00     0.132 A 
ATOM     35  N   LIG d   1      27.355 -15.338  24.245  0.00  0.00    -0.243 NA
ATOM     36  C   LIG d   1      27.273 -14.835  25.497  0.00  0.00     0.119 A 
ATOM     37  C   LIG d   1      26.173 -14.162  25.990  0.00  0.00     0.019 A 
ATOM     38  C   LIG d   1      25.092 -13.991  25.141  0.00  0.00     0.005 A 
ATOM     39  C   LIG d   1      25.153 -14.499  23.844  0.00  0.00     0.051 A 
ENDBRANCH  28  34
ENDBRANCH   6  26
TORSDOF 10
ENDMDL
MODEL 2
REMARK minimizedAffinity -5.96557379REMARK CNNscore 0.42453903REMARK CNNaffinity 5.3585062REMARK  10 active torsions:
REMARK  status: ('A' for Active; 'I' for Inactive)
REMARK       I    between atoms: N_6  and  C_20 
REMARK    1  A    between atoms: N_6  and  C_21 
REMARK    2  A    between atoms: N_6  and  C_24 
REMARK    3  A    between atoms: N_7  and  C_14 
REMARK    4  A    between atoms: N_7  and  C_22 
REMARK    5  A    between atoms: N_9  and  C_35 
REMARK    6  A    between atoms: C_12  and  C_14 
REMARK    7  A    between atoms: C_15  and  C_20 
REMARK    8  A    between atoms: C_21  and  C_23 
REMARK    9  A    between atoms: C_23  and  C_31 
REMARK   10  A    between atoms: C_30  and  C_35 
ROOT
ATOM      1  N   LIG d   1      26.418   4.177  12.578  0.00  0.00    -0.337 N 
ATOM      2  N   LIG d   1      25.613   3.776  10.550  0.00  0.00    -0.232 NA
ATOM      3  C   LIG d   1      25.989   5.395  12.105  0.00  0.00     0.064 A 
ATOM      4  C   LIG d   1      26.225   3.237  11.589  0.00  0.00     0.120 A 
ATOM      5  C   LIG d   1      25.455   5.107  10.851  0.00  0.00     0.086 A 
ATOM      6  C   LIG d   1      24.868   7.436  10.601  0.00  0.00     0.035 A 
ATOM      7  C   LIG d   1      24.856   6.125  10.096  0.00  0.00     0.051 A 
ATOM      8  C   LIG d   1      25.991   6.687  12.645  0.00  0.00     0.033 A 
ATOM      9  C   LIG d   1      25.423   7.700  11.864  0.00  0.00     0.019 A 
ATOM     10  C   LIG d   1      26.944   3.916  13.895  0.00  0.00     0.158 C 
ENDROOT
BRANCH   4  11
ATOM     11  C   LIG d   1      26.631   1.795  11.697  0.00  0.00     0.171 C 
BRANCH  11  12
ATOM     12  N   LIG d   1      25.489   0.894  11.836  0.00  0.00    -0.286 NA
ATOM     13  H   LIG d   1      25.485   0.235  11.054  0.00  0.00     0.128 HD
BRANCH  12  14
ATOM     14  C   LIG d   1      25.286   0.242  13.059  0.00  0.00     0.008 A 
ATOM     15  C   LIG d   1      24.754   0.878  14.187  0.00  0.00     0.024 A 
ATOM     16  C   LIG d   1      24.489   0.168  15.366  0.00  0.00     0.017 A 
ATOM     17  C   LIG d   1      24.730  -1.209  15.430  0.00  0.00     0.009 A 
ATOM     18  C   LIG d   1      25.209  -1.865  14.295  0.00  0.00     0.017 A 
ATOM     19  C   LIG d   1      25.472  -1.146  13.123  0.00  0.00     0.024 A 
BRANCH  17  20
ATOM     20  C   LIG d   1      24.482  -1.965  16.681  0.00  0.00     0.123 C 
ATOM     21  N   LIG d   1      23.802  -1.391  17.651  0.00  0.00    -0.284 NA
ATOM     22  H   LIG d   1      23.664  -1.966  18.490  0.00  0.00     0.188 HD
BRANCH  20  23
ATOM     23  N   LIG d   1      24.886  -3.163  16.852  0.00  0.00    -0.384 N 
ATOM     24  H   LIG d   1      24.657  -3.605  17.735  0.00  0.00     0.157 HD
ATOM     25  H   LIG d   1      25.368  -3.676  16.126  0.00  0.00     0.157 HD
ENDBRANCH  20  23
ENDBRANCH  17  20
ENDBRANCH  12  14
ENDBRANCH  11  12
ENDBRANCH   4  11
BRANCH   6  26
ATOM     26  C   LIG d   1      24.195   8.563   9.889  0.00  0.00     0.259 C 
ATOM     27  O   LIG d   1      23.148   8.981  10.396  0.00  0.00    -0.267 OA
ATOM     28  N   LIG d   1      24.686   9.026   8.660  0.00  0.00    -0.298 N 
BRANCH  28  29
ATOM     29  C   LIG d   1      23.750   9.782   7.809  0.00  0.00     0.144 C 
BRANCH  29  30
ATOM     30  C   LIG d   1      23.879  11.292   7.969  0.00  0.00     0.133 C 
BRANCH  30  31
ATOM     31  C   LIG d   1      22.548  12.026   7.946  0.00  0.00     0.174 C 
ATOM     32  O   LIG d   1      22.002  12.179   9.074  0.00  0.00    -0.648 OA
ATOM     33  O   LIG d   1      22.154  12.424   6.814  0.00  0.00    -0.648 OA
ENDBRANCH  30  31
ENDBRANCH  29  30
ENDBRANCH  28  29
BRANCH  28  34
ATOM     34  C   LIG d   1      26.083   9.098   8.379  0.00  0.00     0.132 A 
ATOM     35  N   LIG d   1      26.850   9.915   9.146  0.00  0.00    -0.243 NA
ATOM     36  C   LIG d   1      28.171   9.996   8.876  0.00  0.00     0.119 A 
ATOM     37  C   LIG d   1      28.796   9.301   7.858  0.00  0.00     0.019 A 
ATOM     38  C   LIG d   1      28.015   8.469   7.075  0.00  0.00     0.005 A 
ATOM     39  C   LIG d   1      26.649   8.367   7.336  0.00  0.00     0.051 A 
ENDBRANCH  28  34
ENDBRANCH   6  26
TORSDOF 10
ENDMDL
MODEL 3
REMARK minimizedAffinity -6.71096754REMARK CNNscore 0.331120461REMARK CNNaffinity 5.66553116REMARK  10 active torsions:
REMARK  status: ('A' for Active; 'I' for Inactive)
REMARK       I    between atoms: N_6  and  C_20 
REMARK    1  A    between atoms: N_6  and  C_21 
REMARK    2  A    between atoms: N_6  and  C_24 
REMARK    3  A    between atoms: N_7  and  C_14 
REMARK    4  A    between atoms: N_7  and  C_22 
REMARK    5  A    between atoms: N_9  and  C_35 
REMARK    6  A    between atoms: C_12  and  C_14 
REMARK    7  A    between atoms: C_15  and  C_20 
REMARK    8  A    between atoms: C_21  and  C_23 
REMARK    9  A    between atoms: C_23  and  C_31 
REMARK   10  A    between atoms: C_30  and  C_35 
ROOT
ATOM      1  N   LIG d   1      24.523   3.323  -6.910  0.00  0.00    -0.337 N 
ATOM      2  N   LIG d   1      24.423   5.309  -7.892  0.00  0.00    -0.232 NA
ATOM      3  C   LIG d   1      23.928   4.158  -5.993  0.00  0.00     0.064 A 
ATOM      4  C   LIG d   1      24.857   4.069  -8.020  0.00  0.00     0.120 A 
ATOM      5  C   LIG d   1      23.843   5.383  -6.650  0.00  0.00     0.086 A 
ATOM      6  C   LIG d   1      22.747   6.311  -4.708  0.00  0.00     0.035 A 
ATOM      7  C   LIG d   1      23.218   6.471  -6.022  0.00  0.00     0.051 A 
ATOM      8  C   LIG d   1      23.442   3.963  -4.694  0.00  0.00     0.033 A 
ATOM      9  C   LIG d   1      22.855   5.067  -4.066  0.00  0.00     0.019 A 
ATOM     10  C   LIG d   1      24.730   1.904  -6.756  0.00  0.00     0.158 C 
ENDROOT
BRANCH   4  11
ATOM     11  C   LIG d   1      25.588   3.531  -9.216  0.00  0.00     0.171 C 
BRANCH  11  12
ATOM     12  N   LIG d   1      25.476   4.400 -10.386  0.00  0.00    -0.286 NA
ATOM     13  H   LIG d   1      26.411   4.585 -10.755  0.00  0.00     0.128 HD
BRANCH  12  14
ATOM     14  C   LIG d   1      24.581   4.051 -11.405  0.00  0.00     0.008 A 
ATOM     15  C   LIG d   1      23.609   3.053 -11.263  0.00  0.00     0.024 A 
ATOM     16  C   LIG d   1      22.678   2.792 -12.278  0.00  0.00     0.017 A 
ATOM     17  C   LIG d   1      22.686   3.551 -13.453  0.00  0.00     0.009 A 
ATOM     18  C   LIG d   1      23.614   4.585 -13.585  0.00  0.00     0.017 A 
ATOM     19  C   LIG d   1      24.541   4.835 -12.566  0.00  0.00     0.024 A 
BRANCH  17  20
ATOM     20  C   LIG d   1      21.726   3.265 -14.547  0.00  0.00     0.123 C 
ATOM     21  N   LIG d   1      21.600   2.028 -14.980  0.00  0.00    -0.284 NA
ATOM     22  H   LIG d   1      20.920   1.896 -15.737  0.00  0.00     0.188 HD
BRANCH  20  23
ATOM     23  N   LIG d   1      20.998   4.169 -15.075  0.00  0.00    -0.384 N 
ATOM     24  H   LIG d   1      20.360   3.877 -15.808  0.00  0.00     0.157 HD
ATOM     25  H   LIG d   1      21.010   5.126 -14.751  0.00  0.00     0.157 HD
ENDBRANCH  20  23
ENDBRANCH  17  20
ENDBRANCH  12  14
ENDBRANCH  11  12
ENDBRANCH   4  11
BRANCH   6  26
ATOM     26  C   LIG d   1      22.013   7.399  -3.995  0.00  0.00     0.259 C 
ATOM     27  O   LIG d   1      22.702   8.327  -3.557  0.00  0.00    -0.267 OA
ATOM     28  N   LIG d   1      20.635   7.294  -3.756  0.00  0.00    -0.298 N 
BRANCH  28  29
ATOM     29  C   LIG d   1      20.078   8.132  -2.680  0.00  0.00     0.144 C 
BRANCH  29  30
ATOM     30  C   LIG d   1      19.448   9.423  -3.189  0.00  0.00     0.133 C 
BRANCH  30  31
ATOM     31  C   LIG d   1      20.156  10.680  -2.712  0.00  0.00     0.174 C 
ATOM     32  O   LIG d   1      19.983  11.699  -3.438  0.00  0.00    -0.648 OA
ATOM     33  O   LIG d   1      20.809  10.575  -1.636  0.00  0.00    -0.648 OA
ENDBRANCH  30  31
ENDBRANCH  29  30
ENDBRANCH  28  29
BRANCH  28  34
ATOM     34  C   LIG d   1      19.743   6.706  -4.702  0.00  0.00     0.132 A 
ATOM     35  N   LIG d   1      18.985   5.654  -4.299  0.00  0.00    -0.243 NA
ATOM     36  C   LIG d   1      18.148   5.086  -5.196  0.00  0.00     0.119 A 
ATOM     37  C   LIG d   1      18.018   5.504  -6.505  0.00  0.00     0.019 A 
ATOM     38  C   LIG d   1      18.791   6.577  -6.917  0.00  0.00     0.005 A 
ATOM     39  C   LIG d   1      19.661   7.181  -6.009  0.00  0.00     0.051 A 
ENDBRANCH  28  34
ENDBRANCH   6  26
TORSDOF 10
ENDMDL
MODEL 4
REMARK minimizedAffinity -6.90904284REMARK CNNscore 0.321490347REMARK CNNaffinity 5.38627863REMARK  10 active torsions:
REMARK  status: ('A' for Active; 'I' for Inactive)
REMARK       I    between atoms: N_6  and  C_20 
REMARK    1  A    between atoms: N_6  and  C_21 
REMARK    2  A    between atoms: N_6  and  C_24 
REMARK    3  A    between atoms: N_7  and  C_14 
REMARK    4  A    between atoms: N_7  and  C_22 
REMARK    5  A    between atoms: N_9  and  C_35 
REMARK    6  A    between atoms: C_12  and  C_14 
REMARK    7  A    between atoms: C_15  and  C_20 
REMARK    8  A    between atoms: C_21  and  C_23 
REMARK    9  A    between atoms: C_23  and  C_31 
REMARK   10  A    between atoms: C_30  and  C_35 
ROOT
ATOM      1  N   LIG d   1      22.928   1.242  -5.897  0.00  0.00    -0.337 N 
ATOM      2  N   LIG d   1      21.851   1.503  -3.976  0.00  0.00    -0.232 NA
ATOM      3  C   LIG d   1      22.781   2.601  -5.740  0.00  0.00     0.064 A 
ATOM      4  C   LIG d   1      22.304   0.615  -4.841  0.00  0.00     0.120 A 
ATOM      5  C   LIG d   1      22.139   2.735  -4.511  0.00  0.00     0.086 A 
ATOM      6  C   LIG d   1      22.227   5.136  -4.764  0.00  0.00     0.035 A 
ATOM      7  C   LIG d   1      21.884   4.013  -3.992  0.00  0.00     0.051 A 
ATOM      8  C   LIG d   1      23.159   3.702  -6.517  0.00  0.00     0.033 A 
ATOM      9  C   LIG d   1      22.864   4.970  -6.005  0.00  0.00     0.019 A 
ATOM     10  C   LIG d   1      23.643   0.585  -6.963  0.00  0.00     0.158 C 
ENDROOT
BRANCH   4  11
ATOM     11  C   LIG d   1      22.186  -0.874  -4.687  0.00  0.00     0.171 C 
BRANCH  11  12
ATOM     12  N   LIG d   1      20.992  -1.273  -3.944  0.00  0.00    -0.286 NA
ATOM     13  H   LIG d   1      20.242  -0.604  -4.131  0.00  0.00     0.128 HD
BRANCH  12  14
ATOM     14  C   LIG d   1      20.539  -2.594  -4.049  0.00  0.00     0.008 A 
ATOM     15  C   LIG d   1      20.147  -3.176  -5.261  0.00  0.00     0.024 A 
ATOM     16  C   LIG d   1      19.780  -4.526  -5.336  0.00  0.00     0.017 A 
ATOM     17  C   LIG d   1      19.823  -5.333  -4.194  0.00  0.00     0.009 A 
ATOM     18  C   LIG d   1      20.264  -4.780  -2.991  0.00  0.00     0.017 A 
ATOM     19  C   LIG d   1      20.627  -3.430  -2.927  0.00  0.00     0.024 A 
BRANCH  17  20
ATOM     20  C   LIG d   1      19.408  -6.756  -4.254  0.00  0.00     0.123 C 
ATOM     21  N   LIG d   1      20.315  -7.676  -4.507  0.00  0.00    -0.284 NA
ATOM     22  H   LIG d   1      19.964  -8.641  -4.535  0.00  0.00     0.188 HD
BRANCH  20  23
ATOM     23  N   LIG d   1      18.206  -7.130  -4.052  0.00  0.00    -0.384 N 
ATOM     24  H   LIG d   1      18.018  -8.126  -4.101  0.00  0.00     0.157 HD
ATOM     25  H   LIG d   1      17.474  -6.477  -3.803  0.00  0.00     0.157 HD
ENDBRANCH  20  23
ENDBRANCH  17  20
ENDBRANCH  12  14
ENDBRANCH  11  12
ENDBRANCH   4  11
BRANCH   6  26
ATOM     26  C   LIG d   1      22.048   6.529  -4.256  0.00  0.00     0.259 C 
ATOM     27  O   LIG d   1      23.081   7.187  -4.091  0.00  0.00    -0.267 OA
ATOM     28  N   LIG d   1      20.777   6.997  -3.892  0.00  0.00    -0.298 N 
BRANCH  28  29
ATOM     29  C   LIG d   1      20.729   8.160  -2.988  0.00  0.00     0.144 C 
BRANCH  29  30
ATOM     30  C   LIG d   1      19.681   9.191  -3.392  0.00  0.00     0.133 C 
BRANCH  30  31
ATOM     31  C   LIG d   1      19.949  10.583  -2.844  0.00  0.00     0.174 C 
ATOM     32  O   LIG d   1      19.726  11.528  -3.652  0.00  0.00    -0.648 OA
ATOM     33  O   LIG d   1      20.332  10.642  -1.642  0.00  0.00    -0.648 OA
ENDBRANCH  30  31
ENDBRANCH  29  30
ENDBRANCH  28  29
BRANCH  28  34
ATOM     34  C   LIG d   1      19.599   6.634  -4.610  0.00  0.00     0.132 A 
ATOM     35  N   LIG d   1      18.576   6.071  -3.919  0.00  0.00    -0.243 NA
ATOM     36  C   LIG d   1      17.463   5.714  -4.597  0.00  0.00     0.119 A 
ATOM     37  C   LIG d   1      17.300   5.880  -5.958  0.00  0.00     0.019 A 
ATOM     38  C   LIG d   1      18.344   6.454  -6.664  0.00  0.00     0.005 A 
ATOM     39  C   LIG d   1      19.502   6.833  -5.986  0.00  0.00     0.051 A 
ENDBRANCH  28  34
ENDBRANCH   6  26
TORSDOF 10
ENDMDL
MODEL 5
REMARK minimizedAffinity -6.43317509REMARK CNNscore 0.309389949REMARK CNNaffinity 5.73048258REMARK  10 active torsions:
REMARK  status: ('A' for Active; 'I' for Inactive)
REMARK       I    between atoms: N_6  and  C_20 
REMARK    1  A    between atoms: N_6  and  C_21 
REMARK    2  A    between atoms: N_6  and  C_24 
REMARK    3  A    between atoms: N_7  and  C_14 
REMARK    4  A    between atoms: N_7  and  C_22 
REMARK    5  A    between atoms: N_9  and  C_35 
REMARK    6  A    between atoms: C_12  and  C_14 
REMARK    7  A    between atoms: C_15  and  C_20 
REMARK    8  A    between atoms: C_21  and  C_23 
REMARK    9  A    between atoms: C_23  and  C_31 
REMARK   10  A    between atoms: C_30  and  C_35 
ROOT
ATOM      1  N   LIG d   1      12.257  19.877   3.371  0.00  0.00    -0.337 N 
ATOM      2  N   LIG d   1      10.163  19.161   3.241  0.00  0.00    -0.232 NA
ATOM      3  C   LIG d   1      11.668  20.641   2.390  0.00  0.00     0.064 A 
ATOM      4  C   LIG d   1      11.332  18.960   3.819  0.00  0.00     0.120 A 
ATOM      5  C   LIG d   1      10.348  20.197   2.359  0.00  0.00     0.086 A 
ATOM      6  C   LIG d   1       9.876  21.828   0.641  0.00  0.00     0.035 A 
ATOM      7  C   LIG d   1       9.425  20.813   1.501  0.00  0.00     0.051 A 
ATOM      8  C   LIG d   1      12.139  21.668   1.565  0.00  0.00     0.033 A 
ATOM      9  C   LIG d   1      11.215  22.248   0.688  0.00  0.00     0.019 A 
ATOM     10  C   LIG d   1      13.600  20.032   3.874  0.00  0.00     0.158 C 
ENDROOT
BRANCH   4  11
ATOM     11  C   LIG d   1      11.615  17.899   4.844  0.00  0.00     0.171 C 
BRANCH  11  12
ATOM     12  N   LIG d   1      12.144  16.670   4.256  0.00  0.00    -0.286 NA
ATOM     13  H   LIG d   1      12.994  16.399   4.756  0.00  0.00     0.128 HD
BRANCH  12  14
ATOM     14  C   LIG d   1      11.283  15.580   4.077  0.00  0.00     0.008 A 
ATOM     15  C   LIG d   1      10.900  14.727   5.120  0.00  0.00     0.024 A 
ATOM     16  C   LIG d   1       9.971  13.698   4.915  0.00  0.00     0.017 A 
ATOM     17  C   LIG d   1       9.383  13.518   3.659  0.00  0.00     0.009 A 
ATOM     18  C   LIG d   1       9.715  14.395   2.625  0.00  0.00     0.017 A 
ATOM     19  C   LIG d   1      10.645  15.419   2.839  0.00  0.00     0.024 A 
BRANCH  17  20
ATOM     20  C   LIG d   1       8.421  12.414   3.423  0.00  0.00     0.123 C 
ATOM     21  N   LIG d   1       8.810  11.367   2.726  0.00  0.00    -0.284 NA
ATOM     22  H   LIG d   1       8.098  10.638   2.597  0.00  0.00     0.188 HD
BRANCH  20  23
ATOM     23  N   LIG d   1       7.233  12.427   3.885  0.00  0.00    -0.384 N 
ATOM     24  H   LIG d   1       6.651  11.621   3.684  0.00  0.00     0.157 HD
ATOM     25  H   LIG d   1       6.893  13.178   4.470  0.00  0.00     0.157 HD
ENDBRANCH  20  23
ENDBRANCH  17  20
ENDBRANCH  12  14
ENDBRANCH  11  12
ENDBRANCH   4  11
BRANCH   6  26
ATOM     26  C   LIG d   1       8.944  22.577  -0.254  0.00  0.00     0.259 C 
ATOM     27  O   LIG d   1       8.309  21.899  -1.070  0.00  0.00    -0.267 OA
ATOM     28  N   LIG d   1       8.893  23.977  -0.222  0.00  0.00    -0.298 N 
BRANCH  28  29
ATOM     29  C   LIG d   1       8.332  24.652  -1.405  0.00  0.00     0.144 C 
BRANCH  29  30
ATOM     30  C   LIG d   1       7.027  25.385  -1.116  0.00  0.00     0.133 C 
BRANCH  30  31
ATOM     31  C   LIG d   1       5.805  24.481  -1.112  0.00  0.00     0.174 C 
ATOM     32  O   LIG d   1       5.438  24.073  -2.250  0.00  0.00    -0.648 OA
ATOM     33  O   LIG d   1       5.314  24.217   0.021  0.00  0.00    -0.648 OA
ENDBRANCH  30  31
ENDBRANCH  29  30
ENDBRANCH  28  29
BRANCH  28  34
ATOM     34  C   LIG d   1       9.027  24.714   0.992  0.00  0.00     0.132 A 
ATOM     35  N   LIG d   1       8.138  24.473   1.989  0.00  0.00    -0.243 NA
ATOM     36  C   LIG d   1       8.253  25.178   3.136  0.00  0.00     0.119 A 
ATOM     37  C   LIG d   1       9.219  26.140   3.360  0.00  0.00     0.019 A 
ATOM     38  C   LIG d   1      10.126  26.387   2.343  0.00  0.00     0.005 A 
ATOM     39  C   LIG d   1      10.029  25.671   1.150  0.00  0.00     0.051 A 
ENDBRANCH  28  34
ENDBRANCH   6  26
TORSDOF 10
ENDMDL
MODEL 6
REMARK minimizedAffinity -7.18727207REMARK CNNscore 0.299429595REMARK CNNaffinity 5.40645218REMARK  10 active torsions:
REMARK  status: ('A' for Active; 'I' for Inactive)
REMARK       I    between atoms: N_6  and  C_20 
REMARK    1  A    between atoms: N_6  and  C_21 
REMARK    2  A    between atoms: N_6  and  C_24 
REMARK    3  A    between atoms: N_7  and  C_14 
REMARK    4  A    between atoms: N_7  and  C_22 
REMARK    5  A    between atoms: N_9  and  C_35 
REMARK    6  A    between atoms: C_12  and  C_14 
REMARK    7  A    between atoms: C_15  and  C_20 
REMARK    8  A    between atoms: C_21  and  C_23 
REMARK    9  A    between atoms: C_23  and  C_31 
REMARK   10  A    between atoms: C_30  and  C_35 
ROOT
ATOM      1  N   LIG d   1       5.005 -28.272   9.967  0.00  0.00    -0.337 N 
ATOM      2  N   LIG d   1       5.088 -26.462  11.245  0.00  0.00    -0.232 NA
ATOM      3  C   LIG d   1       5.478 -28.704  11.184  0.00  0.00     0.064 A 
ATOM      4  C   LIG d   1       4.836 -26.906  10.028  0.00  0.00     0.120 A 
ATOM      5  C   LIG d   1       5.482 -27.557  11.975  0.00  0.00     0.086 A 
ATOM      6  C   LIG d   1       6.277 -28.881  13.832  0.00  0.00     0.035 A 
ATOM      7  C   LIG d   1       5.853 -27.641  13.325  0.00  0.00     0.051 A 
ATOM      8  C   LIG d   1       5.869 -29.956  11.670  0.00  0.00     0.033 A 
ATOM      9  C   LIG d   1       6.272 -30.018  13.009  0.00  0.00     0.019 A 
ATOM     10  C   LIG d   1       4.701 -29.107   8.831  0.00  0.00     0.158 C 
ENDROOT
BRANCH   4  11
ATOM     11  C   LIG d   1       4.397 -26.052   8.873  0.00  0.00     0.171 C 
BRANCH  11  12
ATOM     12  N   LIG d   1       3.120 -25.384   9.117  0.00  0.00    -0.286 NA
ATOM     13  H   LIG d   1       2.783 -25.636  10.049  0.00  0.00     0.128 HD
BRANCH  12  14
ATOM     14  C   LIG d   1       3.022 -24.005   8.891  0.00  0.00     0.008 A 
ATOM     15  C   LIG d   1       2.311 -23.140   9.732  0.00  0.00     0.024 A 
ATOM     16  C   LIG d   1       2.308 -21.755   9.517  0.00  0.00     0.017 A 
ATOM     17  C   LIG d   1       3.044 -21.203   8.463  0.00  0.00     0.009 A 
ATOM     18  C   LIG d   1       3.801 -22.049   7.651  0.00  0.00     0.017 A 
ATOM     19  C   LIG d   1       3.795 -23.431   7.873  0.00  0.00     0.024 A 
BRANCH  17  20
ATOM     20  C   LIG d   1       3.024 -19.743   8.208  0.00  0.00     0.123 C 
ATOM     21  N   LIG d   1       2.259 -19.272   7.245  0.00  0.00    -0.284 NA
ATOM     22  H   LIG d   1       2.290 -18.254   7.119  0.00  0.00     0.188 HD
BRANCH  20  23
ATOM     23  N   LIG d   1       3.707 -18.915   8.898  0.00  0.00    -0.384 N 
ATOM     24  H   LIG d   1       3.619 -17.933   8.659  0.00  0.00     0.157 HD
ATOM     25  H   LIG d   1       4.273 -19.208   9.683  0.00  0.00     0.157 HD
ENDBRANCH  20  23
ENDBRANCH  17  20
ENDBRANCH  12  14
ENDBRANCH  11  12
ENDBRANCH   4  11
BRANCH   6  26
ATOM     26  C   LIG d   1       6.625 -29.067  15.273  0.00  0.00     0.259 C 
ATOM     27  O   LIG d   1       7.632 -28.471  15.672  0.00  0.00    -0.267 OA
ATOM     28  N   LIG d   1       5.897 -29.957  16.074  0.00  0.00    -0.298 N 
BRANCH  28  29
ATOM     29  C   LIG d   1       6.553 -30.438  17.303  0.00  0.00     0.144 C 
BRANCH  29  30
ATOM     30  C   LIG d   1       6.753 -31.949  17.324  0.00  0.00     0.133 C 
BRANCH  30  31
ATOM     31  C   LIG d   1       8.071 -32.401  16.718  0.00  0.00     0.174 C 
ATOM     32  O   LIG d   1       8.919 -32.836  17.547  0.00  0.00    -0.648 OA
ATOM     33  O   LIG d   1       8.161 -32.319  15.461  0.00  0.00    -0.648 OA
ENDBRANCH  30  31
ENDBRANCH  29  30
ENDBRANCH  28  29
BRANCH  28  34
ATOM     34  C   LIG d   1       4.487 -30.124  15.936  0.00  0.00     0.132 A 
ATOM     35  N   LIG d   1       4.036 -31.117  15.128  0.00  0.00    -0.243 NA
ATOM     36  C   LIG d   1       2.701 -31.271  14.984  0.00  0.00     0.119 A 
ATOM     37  C   LIG d   1       1.759 -30.474  15.605  0.00  0.00     0.019 A 
ATOM     38  C   LIG d   1       2.218 -29.461  16.430  0.00  0.00     0.005 A 
ATOM     39  C   LIG d   1       3.592 -29.284  16.596  0.00  0.00     0.051 A 
ENDBRANCH  28  34
ENDBRANCH   6  26
TORSDOF 10
ENDMDL
MODEL 7
REMARK minimizedAffinity -5.89949274REMARK CNNscore 0.25345996REMARK CNNaffinity 4.82778883REMARK  10 active torsions:
REMARK  status: ('A' for Active; 'I' for Inactive)
REMARK       I    between atoms: N_6  and  C_20 
REMARK    1  A    between atoms: N_6  and  C_21 
REMARK    2  A    between atoms: N_6  and  C_24 
REMARK    3  A    between atoms: N_7  and  C_14 
REMARK    4  A    between atoms: N_7  and  C_22 
REMARK    5  A    between atoms: N_9  and  C_35 
REMARK    6  A    between atoms: C_12  and  C_14 
REMARK    7  A    between atoms: C_15  and  C_20 
REMARK    8  A    between atoms: C_21  and  C_23 
REMARK    9  A    between atoms: C_23  and  C_31 
REMARK   10  A    between atoms: C_30  and  C_35 
ROOT
ATOM      1  N   LIG d   1      25.723  11.059  16.870  0.00  0.00    -0.337 N 
ATOM      2  N   LIG d   1      23.593  10.631  16.429  0.00  0.00    -0.232 NA
ATOM      3  C   LIG d   1      25.118  10.902  18.096  0.00  0.00     0.064 A 
ATOM      4  C   LIG d   1      24.758  10.943  15.894  0.00  0.00     0.120 A 
ATOM      5  C   LIG d   1      23.795  10.597  17.787  0.00  0.00     0.086 A 
ATOM      6  C   LIG d   1      23.326  10.392  20.147  0.00  0.00     0.035 A 
ATOM      7  C   LIG d   1      22.887  10.304  18.815  0.00  0.00     0.051 A 
ATOM      8  C   LIG d   1      25.589  10.970  19.412  0.00  0.00     0.033 A 
ATOM      9  C   LIG d   1      24.663  10.713  20.429  0.00  0.00     0.019 A 
ATOM     10  C   LIG d   1      27.132  11.270  16.641  0.00  0.00     0.158 C 
ENDROOT
BRANCH   4  11
ATOM     11  C   LIG d   1      25.012  11.121  14.424  0.00  0.00     0.171 C 
BRANCH  11  12
ATOM     12  N   LIG d   1      24.360  10.097  13.610  0.00  0.00    -0.286 NA
ATOM     13  H   LIG d   1      23.624   9.650  14.161  0.00  0.00     0.128 HD
BRANCH  12  14
ATOM     14  C   LIG d   1      23.908  10.437  12.329  0.00  0.00     0.008 A 
ATOM     15  C   LIG d   1      22.780   9.857  11.736  0.00  0.00     0.024 A 
ATOM     16  C   LIG d   1      22.312  10.285  10.486  0.00  0.00     0.017 A 
ATOM     17  C   LIG d   1      22.955  11.328   9.812  0.00  0.00     0.009 A 
ATOM     18  C   LIG d   1      24.048  11.952  10.416  0.00  0.00     0.017 A 
ATOM     19  C   LIG d   1      24.508  11.515  11.664  0.00  0.00     0.024 A 
BRANCH  17  20
ATOM     20  C   LIG d   1      22.488  11.770   8.476  0.00  0.00     0.123 C 
ATOM     21  N   LIG d   1      21.859  12.921   8.367  0.00  0.00    -0.284 NA
ATOM     22  H   LIG d   1      21.561  13.170   7.416  0.00  0.00     0.188 HD
BRANCH  20  23
ATOM     23  N   LIG d   1      22.687  11.087   7.417  0.00  0.00    -0.384 N 
ATOM     24  H   LIG d   1      22.344  11.475   6.546  0.00  0.00     0.157 HD
ATOM     25  H   LIG d   1      23.209  10.220   7.428  0.00  0.00     0.157 HD
ENDBRANCH  20  23
ENDBRANCH  17  20
ENDBRANCH  12  14
ENDBRANCH  11  12
ENDBRANCH   4  11
BRANCH   6  26
ATOM     26  C   LIG d   1      22.440  10.034  21.295  0.00  0.00     0.259 C 
ATOM     27  O   LIG d   1      21.482  10.788  21.501  0.00  0.00    -0.267 OA
ATOM     28  N   LIG d   1      22.763   8.962  22.139  0.00  0.00    -0.298 N 
BRANCH  28  29
ATOM     29  C   LIG d   1      22.140   8.952  23.474  0.00  0.00     0.144 C 
BRANCH  29  30
ATOM     30  C   LIG d   1      21.571   7.592  23.862  0.00  0.00     0.133 C 
BRANCH  30  31
ATOM     31  C   LIG d   1      22.114   7.053  25.175  0.00  0.00     0.174 C 
ATOM     32  O   LIG d   1      22.941   6.105  25.063  0.00  0.00    -0.648 OA
ATOM     33  O   LIG d   1      21.703   7.627  26.222  0.00  0.00    -0.648 OA
ENDBRANCH  30  31
ENDBRANCH  29  30
ENDBRANCH  28  29
BRANCH  28  34
ATOM     34  C   LIG d   1      23.356   7.761  21.647  0.00  0.00     0.132 A 
ATOM     35  N   LIG d   1      24.620   7.463  22.040  0.00  0.00    -0.243 NA
ATOM     36  C   LIG d   1      25.191   6.333  21.567  0.00  0.00     0.119 A 
ATOM     37  C   LIG d   1      24.569   5.458  20.699  0.00  0.00     0.019 A 
ATOM     38  C   LIG d   1      23.278   5.761  20.297  0.00  0.00     0.005 A 
ATOM     39  C   LIG d   1      22.668   6.921  20.773  0.00  0.00     0.051 A 
ENDBRANCH  28  34
ENDBRANCH   6  26
TORSDOF 10
ENDMDL
MODEL 8
REMARK minimizedAffinity -5.22612858REMARK CNNscore 0.248992547REMARK CNNaffinity 5.62014198REMARK  10 active torsions:
REMARK  status: ('A' for Active; 'I' for Inactive)
REMARK       I    between atoms: N_6  and  C_20 
REMARK    1  A    between atoms: N_6  and  C_21 
REMARK    2  A    between atoms: N_6  and  C_24 
REMARK    3  A    between atoms: N_7  and  C_14 
REMARK    4  A    between atoms: N_7  and  C_22 
REMARK    5  A    between atoms: N_9  and  C_35 
REMARK    6  A    between atoms: C_12  and  C_14 
REMARK    7  A    between atoms: C_15  and  C_20 
REMARK    8  A    between atoms: C_21  and  C_23 
REMARK    9  A    between atoms: C_23  and  C_31 
REMARK   10  A    between atoms: C_30  and  C_35 
ROOT
ATOM      1  N   LIG d   1      13.122  -4.166 -12.785  0.00  0.00    -0.337 N 
ATOM      2  N   LIG d   1      14.877  -2.814 -12.672  0.00  0.00    -0.232 NA
ATOM      3  C   LIG d   1      13.255  -3.846 -11.454  0.00  0.00     0.064 A 
ATOM      4  C   LIG d   1      14.153  -3.569 -13.478  0.00  0.00     0.120 A 
ATOM      5  C   LIG d   1      14.336  -2.969 -11.419  0.00  0.00     0.086 A 
ATOM      6  C   LIG d   1      14.036  -2.747  -9.033  0.00  0.00     0.035 A 
ATOM      7  C   LIG d   1      14.719  -2.380 -10.205  0.00  0.00     0.051 A 
ATOM      8  C   LIG d   1      12.539  -4.207 -10.306  0.00  0.00     0.033 A 
ATOM      9  C   LIG d   1      12.956  -3.642  -9.097  0.00  0.00     0.019 A 
ATOM     10  C   LIG d   1      12.066  -4.958 -13.366  0.00  0.00     0.158 C 
ENDROOT
BRANCH   4  11
ATOM     11  C   LIG d   1      14.396  -3.735 -14.950  0.00  0.00     0.171 C 
BRANCH  11  12
ATOM     12  N   LIG d   1      15.546  -4.588 -15.241  0.00  0.00    -0.286 NA
ATOM     13  H   LIG d   1      16.405  -4.069 -15.048  0.00  0.00     0.128 HD
BRANCH  12  14
ATOM     14  C   LIG d   1      15.591  -5.876 -14.693  0.00  0.00     0.008 A 
ATOM     15  C   LIG d   1      16.395  -6.215 -13.597  0.00  0.00     0.024 A 
ATOM     16  C   LIG d   1      16.347  -7.494 -13.027  0.00  0.00     0.017 A 
ATOM     17  C   LIG d   1      15.467  -8.458 -13.530  0.00  0.00     0.009 A 
ATOM     18  C   LIG d   1      14.622  -8.117 -14.586  0.00  0.00     0.017 A 
ATOM     19  C   LIG d   1      14.679  -6.837 -15.150  0.00  0.00     0.024 A 
BRANCH  17  20
ATOM     20  C   LIG d   1      15.430  -9.824 -12.953  0.00  0.00     0.123 C 
ATOM     21  N   LIG d   1      16.415 -10.216 -12.173  0.00  0.00    -0.284 NA
ATOM     22  H   LIG d   1      16.330 -11.172 -11.807  0.00  0.00     0.188 HD
BRANCH  20  23
ATOM     23  N   LIG d   1      14.468 -10.634 -13.167  0.00  0.00    -0.384 N 
ATOM     24  H   LIG d   1      14.521 -11.542 -12.719  0.00  0.00     0.157 HD
ATOM     25  H   LIG d   1      13.658 -10.374 -13.713  0.00  0.00     0.157 HD
ENDBRANCH  20  23
ENDBRANCH  17  20
ENDBRANCH  12  14
ENDBRANCH  11  12
ENDBRANCH   4  11
BRANCH   6  26
ATOM     26  C   LIG d   1      14.340  -2.117  -7.712  0.00  0.00     0.259 C 
ATOM     27  O   LIG d   1      13.507  -1.309  -7.288  0.00  0.00    -0.267 OA
ATOM     28  N   LIG d   1      15.560  -2.367  -7.067  0.00  0.00    -0.298 N 
BRANCH  28  29
ATOM     29  C   LIG d   1      15.987  -1.391  -6.049  0.00  0.00     0.144 C 
BRANCH  29  30
ATOM     30  C   LIG d   1      16.582  -0.121  -6.647  0.00  0.00     0.133 C 
BRANCH  30  31
ATOM     31  C   LIG d   1      15.984   1.158  -6.086  0.00  0.00     0.174 C 
ATOM     32  O   LIG d   1      16.758   1.833  -5.351  0.00  0.00    -0.648 OA
ATOM     33  O   LIG d   1      14.799   1.418  -6.438  0.00  0.00    -0.648 OA
ENDBRANCH  30  31
ENDBRANCH  29  30
ENDBRANCH  28  29
BRANCH  28  34
ATOM     34  C   LIG d   1      16.190  -3.646  -7.102  0.00  0.00     0.132 A 
ATOM     35  N   LIG d   1      15.609  -4.666  -6.422  0.00  0.00    -0.243 NA
ATOM     36  C   LIG d   1      16.209  -5.876  -6.442  0.00  0.00     0.119 A 
ATOM     37  C   LIG d   1      17.389  -6.143  -7.110  0.00  0.00     0.019 A 
ATOM     38  C   LIG d   1      17.983  -5.103  -7.805  0.00  0.00     0.005 A 
ATOM     39  C   LIG d   1      17.380  -3.845  -7.800  0.00  0.00     0.051 A 
ENDBRANCH  28  34
ENDBRANCH   6  26
TORSDOF 10
ENDMDL
MODEL 9
REMARK minimizedAffinity -7.00952005REMARK CNNscore 0.245952353REMARK CNNaffinity 5.73557949REMARK  10 active torsions:
REMARK  status: ('A' for Active; 'I' for Inactive)
REMARK       I    between atoms: N_6  and  C_20 
REMARK    1  A    between atoms: N_6  and  C_21 
REMARK    2  A    between atoms: N_6  and  C_24 
REMARK    3  A    between atoms: N_7  and  C_14 
REMARK    4  A    between atoms: N_7  and  C_22 
REMARK    5  A    between atoms: N_9  and  C_35 
REMARK    6  A    between atoms: C_12  and  C_14 
REMARK    7  A    between atoms: C_15  and  C_20 
REMARK    8  A    between atoms: C_21  and  C_23 
REMARK    9  A    between atoms: C_23  and  C_31 
REMARK   10  A    between atoms: C_30  and  C_35 
ROOT
ATOM      1  N   LIG d   1       9.511  16.146   2.323  0.00  0.00    -0.337 N 
ATOM      2  N   LIG d   1       7.738  17.205   3.132  0.00  0.00    -0.232 NA
ATOM      3  C   LIG d   1       9.298  17.207   1.474  0.00  0.00     0.064 A 
ATOM      4  C   LIG d   1       8.516  16.148   3.276  0.00  0.00     0.120 A 
ATOM      5  C   LIG d   1       8.207  17.874   2.028  0.00  0.00     0.086 A 
ATOM      6  C   LIG d   1       8.365  19.523   0.270  0.00  0.00     0.035 A 
ATOM      7  C   LIG d   1       7.747  19.064   1.446  0.00  0.00     0.051 A 
ATOM      8  C   LIG d   1       9.949  17.657   0.320  0.00  0.00     0.033 A 
ATOM      9  C   LIG d   1       9.456  18.825  -0.271  0.00  0.00     0.019 A 
ATOM     10  C   LIG d   1      10.607  15.211   2.253  0.00  0.00     0.158 C 
ENDROOT
BRANCH   4  11
ATOM     11  C   LIG d   1       8.361  15.104   4.345  0.00  0.00     0.171 C 
BRANCH  11  12
ATOM     12  N   LIG d   1       8.783  15.577   5.662  0.00  0.00    -0.286 NA
ATOM     13  H   LIG d   1       8.596  14.847   6.354  0.00  0.00     0.128 HD
BRANCH  12  14
ATOM     14  C   LIG d   1      10.070  16.109   5.811  0.00  0.00     0.008 A 
ATOM     15  C   LIG d   1      11.230  15.325   5.785  0.00  0.00     0.024 A 
ATOM     16  C   LIG d   1      12.503  15.907   5.854  0.00  0.00     0.017 A 
ATOM     17  C   LIG d   1      12.641  17.298   5.925  0.00  0.00     0.009 A 
ATOM     18  C   LIG d   1      11.494  18.093   5.897  0.00  0.00     0.017 A 
ATOM     19  C   LIG d   1      10.227  17.501   5.829  0.00  0.00     0.024 A 
BRANCH  17  20
ATOM     20  C   LIG d   1      13.981  17.923   6.028  0.00  0.00     0.123 C 
ATOM     21  N   LIG d   1      14.466  18.201   7.221  0.00  0.00    -0.284 NA
ATOM     22  H   LIG d   1      15.398  18.633   7.225  0.00  0.00     0.188 HD
BRANCH  20  23
ATOM     23  N   LIG d   1      14.697  18.187   5.007  0.00  0.00    -0.384 N 
ATOM     24  H   LIG d   1      15.607  18.602   5.176  0.00  0.00     0.157 HD
ATOM     25  H   LIG d   1      14.403  17.950   4.069  0.00  0.00     0.157 HD
ENDBRANCH  20  23
ENDBRANCH  17  20
ENDBRANCH  12  14
ENDBRANCH  11  12
ENDBRANCH   4  11
BRANCH   6  26
ATOM     26  C   LIG d   1       7.977  20.815  -0.373  0.00  0.00     0.259 C 
ATOM     27  O   LIG d   1       6.856  20.850  -0.892  0.00  0.00    -0.267 OA
ATOM     28  N   LIG d   1       8.894  21.871  -0.462  0.00  0.00    -0.298 N 
BRANCH  28  29
ATOM     29  C   LIG d   1       8.629  22.900  -1.483  0.00  0.00     0.144 C 
BRANCH  29  30
ATOM     30  C   LIG d   1       7.955  24.146  -0.918  0.00  0.00     0.133 C 
BRANCH  30  31
ATOM     31  C   LIG d   1       6.554  24.381  -1.457  0.00  0.00     0.174 C 
ATOM     32  O   LIG d   1       5.853  25.192  -0.788  0.00  0.00    -0.648 OA
ATOM     33  O   LIG d   1       6.258  23.768  -2.521  0.00  0.00    -0.648 OA
ENDBRANCH  30  31
ENDBRANCH  29  30
ENDBRANCH  28  29
BRANCH  28  34
ATOM     34  C   LIG d   1       9.826  22.159   0.579  0.00  0.00     0.132 A 
ATOM     35  N   LIG d   1       9.346  22.341   1.836  0.00  0.00    -0.243 NA
ATOM     36  C   LIG d   1      10.224  22.627   2.823  0.00  0.00     0.119 A 
ATOM     37  C   LIG d   1      11.586  22.751   2.634  0.00  0.00     0.019 A 
ATOM     38  C   LIG d   1      12.077  22.565   1.353  0.00  0.00     0.005 A 
ATOM     39  C   LIG d   1      11.190  22.268   0.317  0.00  0.00     0.051 A 
ENDBRANCH  28  34
ENDBRANCH   6  26
TORSDOF 10
ENDMDL
