REMARK  15 active torsions:
REMARK  status: ('A' for Active; 'I' for Inactive)
REMARK    1  A    between atoms: O_2  and  C_21 
REMARK    2  A    between atoms: O_2  and  C_25 
REMARK    3  A    between atoms: O_4  and  C_17 
REMARK    4  A    between atoms: O_5  and  C_24 
REMARK    5  A    between atoms: O_5  and  C_28 
REMARK    6  A    between atoms: O_6  and  C_18 
REMARK    7  A    between atoms: O_7  and  C_19 
REMARK    8  A    between atoms: O_8  and  C_20 
REMARK    9  A    between atoms: O_9  and  C_22 
REMARK   10  A    between atoms: O_10  and  C_23 
REMARK   11  A    between atoms: O_12  and  C_35 
REMARK   12  A    between atoms: O_14  and  C_42 
REMARK   13  A    between atoms: O_15  and  C_40 
REMARK   14  A    between atoms: C_16  and  C_25 
REMARK   15  A    between atoms: C_33  and  C_37 
ROOT
ATOM      1  O   UNK d   1       7.379 -10.608   2.473  0.00  0.00    -0.348 OA
ATOM      2  C   UNK d   1       7.482 -11.285   3.730  0.00  0.00     0.180 C 
ATOM      3  C   UNK d   1       8.967 -11.504   4.065  0.00  0.00     0.180 C 
ATOM      4  C   UNK d   1       9.654 -12.256   2.922  0.00  0.00     0.183 C 
ATOM      5  C   UNK d   1       9.423 -11.557   1.579  0.00  0.00     0.205 C 
ATOM      6  C   UNK d   1       7.910 -11.352   1.374  0.00  0.00     0.298 C 
ENDROOT
BRANCH   6   7
ATOM      7  O   UNK d   1       7.707 -10.605   0.167  0.00  0.00    -0.318 OA
BRANCH   7   8
ATOM      8  C   UNK d   1       7.803  -9.242   0.242  0.00  0.00     0.077 A 
ATOM      9  C   UNK d   1       8.895  -8.469  -0.144  0.00  0.00     0.074 A 
ATOM     10  C   UNK d   1       8.896  -7.086   0.073  0.00  0.00     0.089 A 
ATOM     11  O   UNK d   1      10.068  -6.462  -0.254  0.00  0.00    -0.340 OA
ATOM     12  C   UNK d   1       7.777  -6.448   0.612  0.00  0.00     0.076 A 
ATOM     13  C   UNK d   1      10.288  -5.173   0.329  0.00  0.00     0.169 C 
ATOM     14  C   UNK d   1       9.061  -4.280   0.279  0.00  0.00     0.121 C 
ATOM     15  C   UNK d   1       7.842  -4.978   0.810  0.00  0.00     0.167 C 
ATOM     16  O   UNK d   1       6.935  -4.332   1.324  0.00  0.00    -0.292 OA
ATOM     17  C   UNK d   1       6.666  -7.223   0.964  0.00  0.00     0.085 A 
ATOM     18  C   UNK d   1       6.685  -8.610   0.789  0.00  0.00     0.074 A 
BRANCH  13  19
ATOM     19  C   UNK d   1      10.993  -5.260   1.681  0.00  0.00    -0.026 A 
ATOM     20  C   UNK d   1      11.862  -6.305   2.027  0.00  0.00     0.049 A 
ATOM     21  C   UNK d   1      12.490  -6.328   3.277  0.00  0.00     0.099 A 
ATOM     22  C   UNK d   1      12.269  -5.320   4.223  0.00  0.00     0.101 A 
ATOM     23  C   UNK d   1      11.402  -4.280   3.890  0.00  0.00     0.040 A 
ATOM     24  C   UNK d   1      10.773  -4.252   2.636  0.00  0.00     0.012 A 
BRANCH  21  25
ATOM     25  O   UNK d   1      13.343  -7.356   3.587  0.00  0.00    -0.358 OA
ATOM     26  H   UNK d   1      13.325  -7.509   4.543  0.00  0.00     0.217 HD
ENDBRANCH  21  25
BRANCH  22  27
ATOM     27  O   UNK d   1      12.938  -5.444   5.411  0.00  0.00    -0.353 OA
ATOM     28  C   UNK d   1      13.190  -4.257   6.148  0.00  0.00     0.210 C 
ENDBRANCH  22  27
ENDBRANCH  13  19
BRANCH  17  29
ATOM     29  O   UNK d   1       5.548  -6.648   1.500  0.00  0.00    -0.360 OA
ATOM     30  H   UNK d   1       5.738  -5.742   1.790  0.00  0.00     0.217 HD
ENDBRANCH  17  29
ENDBRANCH   7   8
ENDBRANCH   6   7
BRANCH   5  31
ATOM     31  O   UNK d   1       9.995 -12.370   0.543  0.00  0.00    -0.388 OA
ATOM     32  H   UNK d   1       9.255 -12.908   0.199  0.00  0.00     0.210 HD
ENDBRANCH   5  31
BRANCH   2  33
ATOM     33  C   UNK d   1       6.806 -10.428   4.817  0.00  0.00     0.205 C 
BRANCH  33  34
ATOM     34  O   UNK d   1       7.171  -9.046   4.732  0.00  0.00    -0.356 OA
BRANCH  34  35
ATOM     35  C   UNK d   1       8.337  -8.707   5.494  0.00  0.00     0.291 C 
ATOM     36  O   UNK d   1       7.965  -7.798   6.542  0.00  0.00    -0.351 OA
ATOM     37  C   UNK d   1       8.988  -6.916   7.009  0.00  0.00     0.152 C 
ATOM     38  C   UNK d   1      10.386  -7.520   6.838  0.00  0.00     0.178 C 
ATOM     39  C   UNK d   1       8.663  -6.592   8.464  0.00  0.00     0.042 C 
ATOM     40  C   UNK d   1      10.664  -7.727   5.341  0.00  0.00     0.183 C 
ATOM     41  C   UNK d   1       9.400  -8.104   4.550  0.00  0.00     0.204 C 
BRANCH  38  42
ATOM     42  O   UNK d   1      11.427  -6.703   7.377  0.00  0.00    -0.390 OA
ATOM     43  H   UNK d   1      12.241  -6.888   6.874  0.00  0.00     0.210 HD
ENDBRANCH  38  42
BRANCH  40  44
ATOM     44  O   UNK d   1      11.661  -8.763   5.196  0.00  0.00    -0.390 OA
ATOM     45  H   UNK d   1      11.833  -8.823   4.235  0.00  0.00     0.210 HD
ENDBRANCH  40  44
BRANCH  41  46
ATOM     46  O   UNK d   1       9.754  -8.981   3.470  0.00  0.00    -0.388 OA
ATOM     47  H   UNK d   1      10.510  -9.509   3.804  0.00  0.00     0.210 HD
ENDBRANCH  41  46
ENDBRANCH  34  35
ENDBRANCH  33  34
ENDBRANCH   2  33
BRANCH   4  48
ATOM     48  O   UNK d   1      11.068 -12.347   3.167  0.00  0.00    -0.390 OA
ATOM     49  H   UNK d   1      11.496 -12.355   2.291  0.00  0.00     0.210 HD
ENDBRANCH   4  48
BRANCH   3  50
ATOM     50  O   UNK d   1       9.121 -12.254   5.273  0.00  0.00    -0.390 OA
ATOM     51  H   UNK d   1       9.935 -12.780   5.180  0.00  0.00     0.210 HD
ENDBRANCH   3  50
TORSDOF 15
