MODEL 1
REMARK minimizedAffinity -5.39030933REMARK CNNscore 0.410868049REMARK CNNaffinity 5.40261745REMARK  13 active torsions:
REMARK  status: ('A' for Active; 'I' for Inactive)
REMARK    1  A    between atoms: O_4  and  C_21 
REMARK    2  A    between atoms: O_4  and  C_27 
REMARK    3  A    between atoms: O_5  and  C_43 
REMARK    4  A    between atoms: N_7  and  C_19 
REMARK    5  A    between atoms: N_9  and  C_33 
REMARK    6  A    between atoms: N_10  and  C_39 
REMARK    7  A    between atoms: N_12  and  C_40 
REMARK    8  A    between atoms: N_13  and  C_44 
REMARK    9  A    between atoms: C_15  and  C_19 
REMARK   10  A    between atoms: C_15  and  C_20 
REMARK   11  A    between atoms: C_17  and  C_21 
REMARK   12  A    between atoms: C_40  and  C_45 
REMARK   13  A    between atoms: C_40  and  C_43 
ROOT
ATOM      1  F   LIG d   1      20.760  12.047  15.002  0.00  0.00    -0.204 F 
ATOM      2  F   LIG d   1      23.760   9.889  17.905  0.00  0.00    -0.204 F 
ATOM      3  C   LIG d   1      22.865  11.364  14.136  0.00  0.00     0.032 A 
ATOM      4  C   LIG d   1      21.957  11.474  15.198  0.00  0.00     0.141 A 
ATOM      5  C   LIG d   1      24.079  10.691  14.385  0.00  0.00     0.003 A 
ATOM      6  C   LIG d   1      22.255  10.997  16.471  0.00  0.00     0.059 A 
ATOM      7  C   LIG d   1      24.378  10.189  15.652  0.00  0.00     0.030 A 
ATOM      8  C   LIG d   1      23.467  10.359  16.686  0.00  0.00     0.142 A 
ENDROOT
BRANCH   3   9
ATOM      9  C   LIG d   1      22.536  11.886  12.737  0.00  0.00     0.136 C 
ATOM     10  O   LIG d   1      21.266  11.294  12.322  0.00  0.00    -0.353 OA
ATOM     11  C   LIG d   1      21.563  10.184  11.461  0.00  0.00     0.145 C 
ATOM     12  C   LIG d   1      22.684  10.708  10.593  0.00  0.00     0.063 C 
ATOM     13  C   LIG d   1      23.533  11.431  11.632  0.00  0.00     0.039 C 
BRANCH  12  14
ATOM     14  C   LIG d   1      22.084  11.630   9.529  0.00  0.00     0.151 C 
BRANCH  14  15
ATOM     15  O   LIG d   1      22.769  12.880   9.466  0.00  0.00    -0.331 OA
BRANCH  15  16
ATOM     16  C   LIG d   1      23.198  13.222   8.208  0.00  0.00     0.094 A 
ATOM     17  C   LIG d   1      22.660  14.235   7.424  0.00  0.00     0.026 A 
ATOM     18  C   LIG d   1      23.154  14.486   6.139  0.00  0.00     0.019 A 
ATOM     19  C   LIG d   1      24.195  13.740   5.566  0.00  0.00     0.056 A 
ATOM     20  C   LIG d   1      24.754  12.755   6.401  0.00  0.00     0.019 A 
ATOM     21  C   LIG d   1      24.264  12.492   7.694  0.00  0.00     0.026 A 
BRANCH  19  22
ATOM     22  N   LIG d   1      24.681  14.015   4.272  0.00  0.00    -0.345 N 
ATOM     23  C   LIG d   1      25.340  15.333   4.062  0.00  0.00     0.119 C 
ATOM     24  C   LIG d   1      25.607  15.608   2.565  0.00  0.00     0.101 C 
ATOM     25  N   LIG d   1      26.407  14.520   1.961  0.00  0.00    -0.249 NA
ATOM     26  C   LIG d   1      25.711  13.221   2.095  0.00  0.00     0.101 C 
ATOM     27  C   LIG d   1      25.398  12.909   3.573  0.00  0.00     0.119 C 
BRANCH  25  28
ATOM     28  C   LIG d   1      26.837  14.728   0.640  0.00  0.00     0.037 A 
ATOM     29  C   LIG d   1      26.624  13.819  -0.396  0.00  0.00     0.013 A 
ATOM     30  C   LIG d   1      27.050  14.093  -1.702  0.00  0.00     0.019 A 
ATOM     31  C   LIG d   1      27.698  15.291  -2.027  0.00  0.00     0.070 A 
ATOM     32  C   LIG d   1      27.951  16.185  -0.977  0.00  0.00     0.019 A 
ATOM     33  C   LIG d   1      27.531  15.903   0.331  0.00  0.00     0.013 A 
BRANCH  31  34
ATOM     34  N   LIG d   1      28.044  15.597  -3.365  0.00  0.00    -0.240 N 
ATOM     35  C   LIG d   1      29.160  15.172  -4.071  0.00  0.00     0.352 A 
ATOM     36  O   LIG d   1      30.115  14.521  -3.670  0.00  0.00    -0.244 OA
ATOM     37  N   LIG d   1      28.983  15.664  -5.375  0.00  0.00    -0.200 N 
ATOM     38  N   LIG d   1      27.837  16.426  -5.440  0.00  0.00    -0.144 NA
ATOM     39  C   LIG d   1      27.341  16.339  -4.247  0.00  0.00     0.207 A 
BRANCH  37  40
ATOM     40  C   LIG d   1      29.944  15.665  -6.481  0.00  0.00     0.137 C 
BRANCH  40  41
ATOM     41  C   LIG d   1      29.434  14.808  -7.657  0.00  0.00     0.027 C 
ATOM     42  C   LIG d   1      29.569  13.311  -7.406  0.00  0.00     0.002 C 
ENDBRANCH  40  41
BRANCH  40  43
ATOM     43  C   LIG d   1      30.378  17.080  -6.964  0.00  0.00     0.133 C 
ATOM     44  C   LIG d   1      31.859  17.187  -7.313  0.00  0.00     0.034 C 
BRANCH  43  45
ATOM     45  O   LIG d   1      30.003  18.100  -6.039  0.00  0.00    -0.383 OA
ATOM     46  H   LIG d   1      30.587  18.867  -6.160  0.00  0.00     0.210 HD
ENDBRANCH  43  45
ENDBRANCH  40  43
ENDBRANCH  37  40
ENDBRANCH  31  34
ENDBRANCH  25  28
ENDBRANCH  19  22
ENDBRANCH  15  16
ENDBRANCH  14  15
ENDBRANCH  12  14
BRANCH   9  47
ATOM     47  C   LIG d   1      22.411  13.428  12.728  0.00  0.00     0.161 C 
BRANCH  47  48
ATOM     48  N   LIG d   1      23.676  14.131  12.733  0.00  0.00    -0.228 N 
ATOM     49  N   LIG d   1      24.087  14.837  11.662  0.00  0.00    -0.145 NA
ATOM     50  C   LIG d   1      25.255  15.318  12.099  0.00  0.00     0.221 A 
ATOM     51  N   LIG d   1      25.577  14.989  13.385  0.00  0.00    -0.201 NA
ATOM     52  C   LIG d   1      24.558  14.251  13.763  0.00  0.00     0.197 A 
ENDBRANCH  47  48
ENDBRANCH   9  47
ENDBRANCH   3   9
TORSDOF 13
ENDMDL
MODEL 2
REMARK minimizedAffinity -6.26955128REMARK CNNscore 0.408902138REMARK CNNaffinity 5.96760416REMARK  13 active torsions:
REMARK  status: ('A' for Active; 'I' for Inactive)
REMARK    1  A    between atoms: O_4  and  C_21 
REMARK    2  A    between atoms: O_4  and  C_27 
REMARK    3  A    between atoms: O_5  and  C_43 
REMARK    4  A    between atoms: N_7  and  C_19 
REMARK    5  A    between atoms: N_9  and  C_33 
REMARK    6  A    between atoms: N_10  and  C_39 
REMARK    7  A    between atoms: N_12  and  C_40 
REMARK    8  A    between atoms: N_13  and  C_44 
REMARK    9  A    between atoms: C_15  and  C_19 
REMARK   10  A    between atoms: C_15  and  C_20 
REMARK   11  A    between atoms: C_17  and  C_21 
REMARK   12  A    between atoms: C_40  and  C_45 
REMARK   13  A    between atoms: C_40  and  C_43 
ROOT
ATOM      1  F   LIG d   1       7.536  22.330  -1.606  0.00  0.00    -0.204 F 
ATOM      2  F   LIG d   1       8.243  26.950  -1.115  0.00  0.00    -0.204 F 
ATOM      3  C   LIG d   1       8.227  23.139   0.518  0.00  0.00     0.032 A 
ATOM      4  C   LIG d   1       7.892  23.359  -0.825  0.00  0.00     0.141 A 
ATOM      5  C   LIG d   1       8.528  24.269   1.308  0.00  0.00     0.003 A 
ATOM      6  C   LIG d   1       7.911  24.633  -1.387  0.00  0.00     0.059 A 
ATOM      7  C   LIG d   1       8.527  25.552   0.759  0.00  0.00     0.030 A 
ATOM      8  C   LIG d   1       8.231  25.720  -0.587  0.00  0.00     0.142 A 
ENDROOT
BRANCH   3   9
ATOM      9  C   LIG d   1       8.205  21.741   1.135  0.00  0.00     0.136 C 
ATOM     10  O   LIG d   1       9.567  21.408   1.545  0.00  0.00    -0.353 OA
ATOM     11  C   LIG d   1      10.137  20.571   0.526  0.00  0.00     0.145 C 
ATOM     12  C   LIG d   1       9.005  19.634   0.174  0.00  0.00     0.063 C 
ATOM     13  C   LIG d   1       7.832  20.605   0.138  0.00  0.00     0.039 C 
BRANCH  12  14
ATOM     14  C   LIG d   1       8.899  18.569   1.268  0.00  0.00     0.151 C 
BRANCH  14  15
ATOM     15  O   LIG d   1       8.007  17.519   0.896  0.00  0.00    -0.331 OA
BRANCH  15  16
ATOM     16  C   LIG d   1       7.538  16.780   1.954  0.00  0.00     0.094 A 
ATOM     17  C   LIG d   1       7.059  17.304   3.149  0.00  0.00     0.026 A 
ATOM     18  C   LIG d   1       6.628  16.461   4.179  0.00  0.00     0.019 A 
ATOM     19  C   LIG d   1       6.661  15.062   4.080  0.00  0.00     0.056 A 
ATOM     20  C   LIG d   1       7.103  14.561   2.842  0.00  0.00     0.019 A 
ATOM     21  C   LIG d   1       7.540  15.400   1.799  0.00  0.00     0.026 A 
BRANCH  19  22
ATOM     22  N   LIG d   1       6.215  14.233   5.128  0.00  0.00    -0.345 N 
ATOM     23  C   LIG d   1       5.216  14.809   6.070  0.00  0.00     0.119 C 
ATOM     24  C   LIG d   1       4.994  13.898   7.298  0.00  0.00     0.101 C 
ATOM     25  N   LIG d   1       4.598  12.533   6.882  0.00  0.00    -0.249 NA
ATOM     26  C   LIG d   1       5.633  11.929   6.015  0.00  0.00     0.101 C 
ATOM     27  C   LIG d   1       5.911  12.814   4.782  0.00  0.00     0.119 C 
BRANCH  25  28
ATOM     28  C   LIG d   1       4.228  11.655   7.913  0.00  0.00     0.037 A 
ATOM     29  C   LIG d   1       3.945  10.304   7.715  0.00  0.00     0.013 A 
ATOM     30  C   LIG d   1       3.610   9.467   8.787  0.00  0.00     0.019 A 
ATOM     31  C   LIG d   1       3.551   9.945  10.101  0.00  0.00     0.070 A 
ATOM     32  C   LIG d   1       3.792  11.313  10.295  0.00  0.00     0.019 A 
ATOM     33  C   LIG d   1       4.120  12.149   9.217  0.00  0.00     0.013 A 
BRANCH  31  34
ATOM     34  N   LIG d   1       3.298   9.073  11.187  0.00  0.00    -0.240 N 
ATOM     35  C   LIG d   1       2.091   8.489  11.544  0.00  0.00     0.352 A 
ATOM     36  O   LIG d   1       0.984   8.665  11.055  0.00  0.00    -0.244 OA
ATOM     37  N   LIG d   1       2.394   7.639  12.621  0.00  0.00    -0.200 N 
ATOM     38  N   LIG d   1       3.725   7.760  12.957  0.00  0.00    -0.144 NA
ATOM     39  C   LIG d   1       4.188   8.599  12.086  0.00  0.00     0.207 A 
BRANCH  37  40
ATOM     40  C   LIG d   1       1.465   6.919  13.495  0.00  0.00     0.137 C 
BRANCH  40  41
ATOM     41  C   LIG d   1       0.854   5.704  12.771  0.00  0.00     0.027 C 
ATOM     42  C   LIG d   1      -0.667   5.658  12.865  0.00  0.00     0.002 C 
ENDBRANCH  40  41
BRANCH  40  43
ATOM     43  C   LIG d   1       2.057   6.510  14.876  0.00  0.00     0.133 C 
ATOM     44  C   LIG d   1       2.401   5.028  14.987  0.00  0.00     0.034 C 
BRANCH  43  45
ATOM     45  O   LIG d   1       1.220   6.916  15.959  0.00  0.00    -0.383 OA
ATOM     46  H   LIG d   1       1.397   6.347  16.726  0.00  0.00     0.210 HD
ENDBRANCH  43  45
ENDBRANCH  40  43
ENDBRANCH  37  40
ENDBRANCH  31  34
ENDBRANCH  25  28
ENDBRANCH  19  22
ENDBRANCH  15  16
ENDBRANCH  14  15
ENDBRANCH  12  14
BRANCH   9  47
ATOM     47  C   LIG d   1       7.270  21.686   2.367  0.00  0.00     0.161 C 
BRANCH  47  48
ATOM     48  N   LIG d   1       5.858  21.720   2.049  0.00  0.00    -0.228 N 
ATOM     49  N   LIG d   1       5.023  20.752   2.472  0.00  0.00    -0.145 NA
ATOM     50  C   LIG d   1       3.856  21.184   1.984  0.00  0.00     0.221 A 
ATOM     51  N   LIG d   1       3.906  22.376   1.320  0.00  0.00    -0.201 NA
ATOM     52  C   LIG d   1       5.179  22.696   1.387  0.00  0.00     0.197 A 
ENDBRANCH  47  48
ENDBRANCH   9  47
ENDBRANCH   3   9
TORSDOF 13
ENDMDL
MODEL 3
REMARK minimizedAffinity -5.90791416REMARK CNNscore 0.366944611REMARK CNNaffinity 5.16406155REMARK  13 active torsions:
REMARK  status: ('A' for Active; 'I' for Inactive)
REMARK    1  A    between atoms: O_4  and  C_21 
REMARK    2  A    between atoms: O_4  and  C_27 
REMARK    3  A    between atoms: O_5  and  C_43 
REMARK    4  A    between atoms: N_7  and  C_19 
REMARK    5  A    between atoms: N_9  and  C_33 
REMARK    6  A    between atoms: N_10  and  C_39 
REMARK    7  A    between atoms: N_12  and  C_40 
REMARK    8  A    between atoms: N_13  and  C_44 
REMARK    9  A    between atoms: C_15  and  C_19 
REMARK   10  A    between atoms: C_15  and  C_20 
REMARK   11  A    between atoms: C_17  and  C_21 
REMARK   12  A    between atoms: C_40  and  C_45 
REMARK   13  A    between atoms: C_40  and  C_43 
ROOT
ATOM      1  F   LIG d   1      25.391  10.976  14.871  0.00  0.00    -0.204 F 
ATOM      2  F   LIG d   1      22.542  11.051  18.607  0.00  0.00    -0.204 F 
ATOM      3  C   LIG d   1      23.048  10.859  14.497  0.00  0.00     0.032 A 
ATOM      4  C   LIG d   1      24.146  10.938  15.365  0.00  0.00     0.141 A 
ATOM      5  C   LIG d   1      21.760  10.892  15.072  0.00  0.00     0.003 A 
ATOM      6  C   LIG d   1      23.986  10.986  16.747  0.00  0.00     0.059 A 
ATOM      7  C   LIG d   1      21.590  10.963  16.455  0.00  0.00     0.030 A 
ATOM      8  C   LIG d   1      22.706  10.997  17.280  0.00  0.00     0.142 A 
ENDROOT
BRANCH   3   9
ATOM      9  C   LIG d   1      23.222  10.808  12.979  0.00  0.00     0.136 C 
ATOM     10  O   LIG d   1      23.026  12.159  12.458  0.00  0.00    -0.353 OA
ATOM     11  C   LIG d   1      21.685  12.240  11.953  0.00  0.00     0.145 C 
ATOM     12  C   LIG d   1      21.502  10.921  11.239  0.00  0.00     0.063 C 
ATOM     13  C   LIG d   1      22.144   9.967  12.237  0.00  0.00     0.039 C 
BRANCH  12  14
ATOM     14  C   LIG d   1      22.224  10.994   9.892  0.00  0.00     0.151 C 
BRANCH  14  15
ATOM     15  O   LIG d   1      21.719  12.051   9.078  0.00  0.00    -0.331 OA
BRANCH  15  16
ATOM     16  C   LIG d   1      22.462  12.295   7.949  0.00  0.00     0.094 A 
ATOM     17  C   LIG d   1      23.402  11.429   7.405  0.00  0.00     0.026 A 
ATOM     18  C   LIG d   1      24.128  11.785   6.263  0.00  0.00     0.019 A 
ATOM     19  C   LIG d   1      23.966  13.018   5.614  0.00  0.00     0.056 A 
ATOM     20  C   LIG d   1      22.971  13.853   6.156  0.00  0.00     0.019 A 
ATOM     21  C   LIG d   1      22.237  13.505   7.306  0.00  0.00     0.026 A 
BRANCH  19  22
ATOM     22  N   LIG d   1      24.703  13.353   4.461  0.00  0.00    -0.345 N 
ATOM     23  C   LIG d   1      24.873  12.289   3.433  0.00  0.00     0.119 C 
ATOM     24  C   LIG d   1      25.892  12.701   2.346  0.00  0.00     0.101 C 
ATOM     25  N   LIG d   1      25.506  13.983   1.716  0.00  0.00    -0.249 NA
ATOM     26  C   LIG d   1      25.421  15.059   2.727  0.00  0.00     0.101 C 
ATOM     27  C   LIG d   1      24.432  14.688   3.851  0.00  0.00     0.119 C 
BRANCH  25  28
ATOM     28  C   LIG d   1      26.276  14.387   0.613  0.00  0.00     0.037 A 
ATOM     29  C   LIG d   1      27.222  15.411   0.662  0.00  0.00     0.013 A 
ATOM     30  C   LIG d   1      27.984  15.751  -0.463  0.00  0.00     0.019 A 
ATOM     31  C   LIG d   1      27.836  15.076  -1.681  0.00  0.00     0.070 A 
ATOM     32  C   LIG d   1      26.856  14.076  -1.743  0.00  0.00     0.019 A 
ATOM     33  C   LIG d   1      26.089  13.744  -0.616  0.00  0.00     0.013 A 
BRANCH  31  34
ATOM     34  N   LIG d   1      28.672  15.368  -2.786  0.00  0.00    -0.240 N 
ATOM     35  C   LIG d   1      28.353  16.094  -3.923  0.00  0.00     0.352 A 
ATOM     36  O   LIG d   1      27.271  16.561  -4.252  0.00  0.00    -0.244 OA
ATOM     37  N   LIG d   1      29.548  16.180  -4.657  0.00  0.00    -0.200 N 
ATOM     38  N   LIG d   1      30.542  15.466  -4.024  0.00  0.00    -0.144 NA
ATOM     39  C   LIG d   1      29.970  15.028  -2.948  0.00  0.00     0.207 A 
BRANCH  37  40
ATOM     40  C   LIG d   1      29.740  16.679  -6.020  0.00  0.00     0.137 C 
BRANCH  40  41
ATOM     41  C   LIG d   1      31.018  17.535  -6.121  0.00  0.00     0.027 C 
ATOM     42  C   LIG d   1      31.757  17.349  -7.441  0.00  0.00     0.002 C 
ENDBRANCH  40  41
BRANCH  40  43
ATOM     43  C   LIG d   1      29.710  15.582  -7.124  0.00  0.00     0.133 C 
ATOM     44  C   LIG d   1      28.569  15.741  -8.124  0.00  0.00     0.034 C 
BRANCH  43  45
ATOM     45  O   LIG d   1      29.716  14.266  -6.572  0.00  0.00    -0.383 OA
ATOM     46  H   LIG d   1      29.327  13.651  -7.214  0.00  0.00     0.210 HD
ENDBRANCH  43  45
ENDBRANCH  40  43
ENDBRANCH  37  40
ENDBRANCH  31  34
ENDBRANCH  25  28
ENDBRANCH  19  22
ENDBRANCH  15  16
ENDBRANCH  14  15
ENDBRANCH  12  14
BRANCH   9  47
ATOM     47  C   LIG d   1      24.635  10.309  12.593  0.00  0.00     0.161 C 
BRANCH  47  48
ATOM     48  N   LIG d   1      24.730   8.879  12.391  0.00  0.00    -0.228 N 
ATOM     49  N   LIG d   1      24.464   8.323  11.193  0.00  0.00    -0.145 NA
ATOM     50  C   LIG d   1      24.690   7.031  11.449  0.00  0.00     0.221 A 
ATOM     51  N   LIG d   1      25.117   6.754  12.717  0.00  0.00    -0.201 NA
ATOM     52  C   LIG d   1      25.145   7.938  13.283  0.00  0.00     0.197 A 
ENDBRANCH  47  48
ENDBRANCH   9  47
ENDBRANCH   3   9
TORSDOF 13
ENDMDL
MODEL 4
REMARK minimizedAffinity -5.61290884REMARK CNNscore 0.314396977REMARK CNNaffinity 6.26653194REMARK  13 active torsions:
REMARK  status: ('A' for Active; 'I' for Inactive)
REMARK    1  A    between atoms: O_4  and  C_21 
REMARK    2  A    between atoms: O_4  and  C_27 
REMARK    3  A    between atoms: O_5  and  C_43 
REMARK    4  A    between atoms: N_7  and  C_19 
REMARK    5  A    between atoms: N_9  and  C_33 
REMARK    6  A    between atoms: N_10  and  C_39 
REMARK    7  A    between atoms: N_12  and  C_40 
REMARK    8  A    between atoms: N_13  and  C_44 
REMARK    9  A    between atoms: C_15  and  C_19 
REMARK   10  A    between atoms: C_15  and  C_20 
REMARK   11  A    between atoms: C_17  and  C_21 
REMARK   12  A    between atoms: C_40  and  C_45 
REMARK   13  A    between atoms: C_40  and  C_43 
ROOT
ATOM      1  F   LIG d   1      20.058 -19.303   5.334  0.00  0.00    -0.204 F 
ATOM      2  F   LIG d   1      20.990 -15.772   8.291  0.00  0.00    -0.204 F 
ATOM      3  C   LIG d   1      21.058 -17.336   4.453  0.00  0.00     0.032 A 
ATOM      4  C   LIG d   1      20.532 -18.064   5.529  0.00  0.00     0.141 A 
ATOM      5  C   LIG d   1      21.605 -16.066   4.731  0.00  0.00     0.003 A 
ATOM      6  C   LIG d   1      20.490 -17.541   6.818  0.00  0.00     0.059 A 
ATOM      7  C   LIG d   1      21.587 -15.542   6.025  0.00  0.00     0.030 A 
ATOM      8  C   LIG d   1      21.018 -16.281   7.053  0.00  0.00     0.142 A 
ENDROOT
BRANCH   3   9
ATOM      9  C   LIG d   1      21.106 -17.911   3.037  0.00  0.00     0.136 C 
ATOM     10  O   LIG d   1      21.533 -16.846   2.133  0.00  0.00    -0.353 OA
ATOM     11  C   LIG d   1      20.359 -16.312   1.502  0.00  0.00     0.145 C 
ATOM     12  C   LIG d   1      19.544 -17.545   1.186  0.00  0.00     0.063 C 
ATOM     13  C   LIG d   1      19.721 -18.341   2.472  0.00  0.00     0.039 C 
BRANCH  12  14
ATOM     14  C   LIG d   1      20.143 -18.218  -0.051  0.00  0.00     0.151 C 
BRANCH  14  15
ATOM     15  O   LIG d   1      19.166 -18.408  -1.074  0.00  0.00    -0.331 OA
BRANCH  15  16
ATOM     16  C   LIG d   1      18.147 -19.259  -0.725  0.00  0.00     0.094 A 
ATOM     17  C   LIG d   1      16.797 -18.930  -0.708  0.00  0.00     0.026 A 
ATOM     18  C   LIG d   1      15.836 -19.866  -0.309  0.00  0.00     0.019 A 
ATOM     19  C   LIG d   1      16.167 -21.166   0.102  0.00  0.00     0.056 A 
ATOM     20  C   LIG d   1      17.535 -21.487   0.027  0.00  0.00     0.019 A 
ATOM     21  C   LIG d   1      18.510 -20.553  -0.372  0.00  0.00     0.026 A 
BRANCH  19  22
ATOM     22  N   LIG d   1      15.181 -22.094   0.494  0.00  0.00    -0.345 N 
ATOM     23  C   LIG d   1      13.795 -21.856   0.007  0.00  0.00     0.119 C 
ATOM     24  C   LIG d   1      12.777 -22.793   0.695  0.00  0.00     0.101 C 
ATOM     25  N   LIG d   1      13.159 -24.212   0.519  0.00  0.00    -0.249 NA
ATOM     26  C   LIG d   1      14.504 -24.466   1.080  0.00  0.00     0.101 C 
ATOM     27  C   LIG d   1      15.557 -23.537   0.442  0.00  0.00     0.119 C 
BRANCH  25  28
ATOM     28  C   LIG d   1      12.233 -25.164   0.976  0.00  0.00     0.037 A 
ATOM     29  C   LIG d   1      12.588 -26.430   1.438  0.00  0.00     0.013 A 
ATOM     30  C   LIG d   1      11.623 -27.329   1.911  0.00  0.00     0.019 A 
ATOM     31  C   LIG d   1      10.265 -26.994   1.948  0.00  0.00     0.070 A 
ATOM     32  C   LIG d   1       9.902 -25.737   1.443  0.00  0.00     0.019 A 
ATOM     33  C   LIG d   1      10.871 -24.844   0.963  0.00  0.00     0.013 A 
BRANCH  31  34
ATOM     34  N   LIG d   1       9.309 -27.874   2.510  0.00  0.00    -0.240 N 
ATOM     35  C   LIG d   1       9.163 -28.231   3.843  0.00  0.00     0.352 A 
ATOM     36  O   LIG d   1       9.872 -27.933   4.794  0.00  0.00    -0.244 OA
ATOM     37  N   LIG d   1       8.015 -29.041   3.887  0.00  0.00    -0.200 N 
ATOM     38  N   LIG d   1       7.523 -29.231   2.614  0.00  0.00    -0.144 NA
ATOM     39  C   LIG d   1       8.314 -28.526   1.869  0.00  0.00     0.207 A 
BRANCH  37  40
ATOM     40  C   LIG d   1       7.509 -29.833   5.010  0.00  0.00     0.137 C 
BRANCH  40  41
ATOM     41  C   LIG d   1       5.968 -29.811   5.052  0.00  0.00     0.027 C 
ATOM     42  C   LIG d   1       5.416 -29.148   6.308  0.00  0.00     0.002 C 
ENDBRANCH  40  41
BRANCH  40  43
ATOM     43  C   LIG d   1       8.052 -31.291   5.073  0.00  0.00     0.133 C 
ATOM     44  C   LIG d   1       9.011 -31.545   6.232  0.00  0.00     0.034 C 
BRANCH  43  45
ATOM     45  O   LIG d   1       8.636 -31.699   3.836  0.00  0.00    -0.383 OA
ATOM     46  H   LIG d   1       9.273 -32.412   4.007  0.00  0.00     0.210 HD
ENDBRANCH  43  45
ENDBRANCH  40  43
ENDBRANCH  37  40
ENDBRANCH  31  34
ENDBRANCH  25  28
ENDBRANCH  19  22
ENDBRANCH  15  16
ENDBRANCH  14  15
ENDBRANCH  12  14
BRANCH   9  47
ATOM     47  C   LIG d   1      22.100 -19.093   2.946  0.00  0.00     0.161 C 
BRANCH  47  48
ATOM     48  N   LIG d   1      23.349 -18.776   2.286  0.00  0.00    -0.228 N 
ATOM     49  N   LIG d   1      24.364 -18.197   2.954  0.00  0.00    -0.145 NA
ATOM     50  C   LIG d   1      25.291 -18.110   1.994  0.00  0.00     0.221 A 
ATOM     51  N   LIG d   1      24.930 -18.633   0.785  0.00  0.00    -0.201 NA
ATOM     52  C   LIG d   1      23.706 -19.057   1.003  0.00  0.00     0.197 A 
ENDBRANCH  47  48
ENDBRANCH   9  47
ENDBRANCH   3   9
TORSDOF 13
ENDMDL
MODEL 5
REMARK minimizedAffinity -6.06313086REMARK CNNscore 0.300972193REMARK CNNaffinity 5.70147181REMARK  13 active torsions:
REMARK  status: ('A' for Active; 'I' for Inactive)
REMARK    1  A    between atoms: O_4  and  C_21 
REMARK    2  A    between atoms: O_4  and  C_27 
REMARK    3  A    between atoms: O_5  and  C_43 
REMARK    4  A    between atoms: N_7  and  C_19 
REMARK    5  A    between atoms: N_9  and  C_33 
REMARK    6  A    between atoms: N_10  and  C_39 
REMARK    7  A    between atoms: N_12  and  C_40 
REMARK    8  A    between atoms: N_13  and  C_44 
REMARK    9  A    between atoms: C_15  and  C_19 
REMARK   10  A    between atoms: C_15  and  C_20 
REMARK   11  A    between atoms: C_17  and  C_21 
REMARK   12  A    between atoms: C_40  and  C_45 
REMARK   13  A    between atoms: C_40  and  C_43 
ROOT
ATOM      1  F   LIG d   1       4.097  25.775   1.890  0.00  0.00    -0.204 F 
ATOM      2  F   LIG d   1       0.888  23.173   4.130  0.00  0.00    -0.204 F 
ATOM      3  C   LIG d   1       3.576  23.632   1.007  0.00  0.00     0.032 A 
ATOM      4  C   LIG d   1       3.403  24.631   1.975  0.00  0.00     0.141 A 
ATOM      5  C   LIG d   1       2.769  22.480   1.110  0.00  0.00     0.003 A 
ATOM      6  C   LIG d   1       2.515  24.479   3.036  0.00  0.00     0.059 A 
ATOM      7  C   LIG d   1       1.860  22.328   2.158  0.00  0.00     0.030 A 
ATOM      8  C   LIG d   1       1.751  23.325   3.118  0.00  0.00     0.142 A 
ENDROOT
BRANCH   3   9
ATOM      9  C   LIG d   1       4.550  23.799  -0.159  0.00  0.00     0.136 C 
ATOM     10  O   LIG d   1       4.539  22.562  -0.936  0.00  0.00    -0.353 OA
ATOM     11  C   LIG d   1       5.684  21.791  -0.544  0.00  0.00     0.145 C 
ATOM     12  C   LIG d   1       6.780  22.825  -0.439  0.00  0.00     0.063 C 
ATOM     13  C   LIG d   1       6.039  23.954   0.265  0.00  0.00     0.039 C 
BRANCH  12  14
ATOM     14  C   LIG d   1       7.253  23.176  -1.852  0.00  0.00     0.151 C 
BRANCH  14  15
ATOM     15  O   LIG d   1       8.661  22.996  -1.997  0.00  0.00    -0.331 OA
BRANCH  15  16
ATOM     16  C   LIG d   1       9.302  22.625  -0.840  0.00  0.00     0.094 A 
ATOM     17  C   LIG d   1       9.479  21.318  -0.405  0.00  0.00     0.026 A 
ATOM     18  C   LIG d   1      10.125  21.047   0.807  0.00  0.00     0.019 A 
ATOM     19  C   LIG d   1      10.615  22.057   1.648  0.00  0.00     0.056 A 
ATOM     20  C   LIG d   1      10.467  23.368   1.158  0.00  0.00     0.019 A 
ATOM     21  C   LIG d   1       9.818  23.651  -0.058  0.00  0.00     0.026 A 
BRANCH  19  22
ATOM     22  N   LIG d   1      11.268  21.761   2.861  0.00  0.00    -0.345 N 
ATOM     23  C   LIG d   1      11.159  22.768   3.952  0.00  0.00     0.119 C 
ATOM     24  C   LIG d   1      12.107  22.443   5.129  0.00  0.00     0.101 C 
ATOM     25  N   LIG d   1      11.861  21.079   5.647  0.00  0.00    -0.249 NA
ATOM     26  C   LIG d   1      12.053  20.071   4.581  0.00  0.00     0.101 C 
ATOM     27  C   LIG d   1      11.144  20.363   3.370  0.00  0.00     0.119 C 
BRANCH  25  28
ATOM     28  C   LIG d   1      12.562  20.723   6.811  0.00  0.00     0.037 A 
ATOM     29  C   LIG d   1      13.321  19.560   6.932  0.00  0.00     0.013 A 
ATOM     30  C   LIG d   1      14.025  19.271   8.108  0.00  0.00     0.019 A 
ATOM     31  C   LIG d   1      14.005  20.137   9.208  0.00  0.00     0.070 A 
ATOM     32  C   LIG d   1      13.207  21.285   9.102  0.00  0.00     0.019 A 
ATOM     33  C   LIG d   1      12.497  21.567   7.925  0.00  0.00     0.013 A 
BRANCH  31  34
ATOM     34  N   LIG d   1      14.790  19.880  10.357  0.00  0.00    -0.240 N 
ATOM     35  C   LIG d   1      14.489  19.041  11.421  0.00  0.00     0.352 A 
ATOM     36  O   LIG d   1      13.459  18.417  11.632  0.00  0.00    -0.244 OA
ATOM     37  N   LIG d   1      15.629  19.060  12.242  0.00  0.00    -0.200 N 
ATOM     38  N   LIG d   1      16.561  19.939  11.735  0.00  0.00    -0.144 NA
ATOM     39  C   LIG d   1      16.014  20.373  10.644  0.00  0.00     0.207 A 
BRANCH  37  40
ATOM     40  C   LIG d   1      15.786  18.496  13.585  0.00  0.00     0.137 C 
BRANCH  40  41
ATOM     41  C   LIG d   1      17.150  17.793  13.733  0.00  0.00     0.027 C 
ATOM     42  C   LIG d   1      18.073  18.487  14.727  0.00  0.00     0.002 C 
ENDBRANCH  40  41
BRANCH  40  43
ATOM     43  C   LIG d   1      15.546  19.505  14.746  0.00  0.00     0.133 C 
ATOM     44  C   LIG d   1      14.462  19.072  15.728  0.00  0.00     0.034 C 
BRANCH  43  45
ATOM     45  O   LIG d   1      15.291  20.824  14.264  0.00  0.00    -0.383 OA
ATOM     46  H   LIG d   1      14.791  21.316  14.936  0.00  0.00     0.210 HD
ENDBRANCH  43  45
ENDBRANCH  40  43
ENDBRANCH  37  40
ENDBRANCH  31  34
ENDBRANCH  25  28
ENDBRANCH  19  22
ENDBRANCH  15  16
ENDBRANCH  14  15
ENDBRANCH  12  14
BRANCH   9  47
ATOM     47  C   LIG d   1       4.138  24.981  -1.068  0.00  0.00     0.161 C 
BRANCH  47  48
ATOM     48  N   LIG d   1       2.740  24.989  -1.444  0.00  0.00    -0.228 N 
ATOM     49  N   LIG d   1       2.211  24.002  -2.191  0.00  0.00    -0.145 NA
ATOM     50  C   LIG d   1       0.936  24.393  -2.275  0.00  0.00     0.221 A 
ATOM     51  N   LIG d   1       0.631  25.538  -1.595  0.00  0.00    -0.201 NA
ATOM     52  C   LIG d   1       1.785  25.885  -1.072  0.00  0.00     0.197 A 
ENDBRANCH  47  48
ENDBRANCH   9  47
ENDBRANCH   3   9
TORSDOF 13
ENDMDL
MODEL 6
REMARK minimizedAffinity -5.90941334REMARK CNNscore 0.283110172REMARK CNNaffinity 5.62838316REMARK  13 active torsions:
REMARK  status: ('A' for Active; 'I' for Inactive)
REMARK    1  A    between atoms: O_4  and  C_21 
REMARK    2  A    between atoms: O_4  and  C_27 
REMARK    3  A    between atoms: O_5  and  C_43 
REMARK    4  A    between atoms: N_7  and  C_19 
REMARK    5  A    between atoms: N_9  and  C_33 
REMARK    6  A    between atoms: N_10  and  C_39 
REMARK    7  A    between atoms: N_12  and  C_40 
REMARK    8  A    between atoms: N_13  and  C_44 
REMARK    9  A    between atoms: C_15  and  C_19 
REMARK   10  A    between atoms: C_15  and  C_20 
REMARK   11  A    between atoms: C_17  and  C_21 
REMARK   12  A    between atoms: C_40  and  C_45 
REMARK   13  A    between atoms: C_40  and  C_43 
ROOT
ATOM      1  F   LIG d   1      25.751   2.030 -14.053  0.00  0.00    -0.204 F 
ATOM      2  F   LIG d   1      28.007   5.563 -11.927  0.00  0.00    -0.204 F 
ATOM      3  C   LIG d   1      24.468   3.586 -12.797  0.00  0.00     0.032 A 
ATOM      4  C   LIG d   1      25.701   3.122 -13.277  0.00  0.00     0.141 A 
ATOM      5  C   LIG d   1      24.470   4.778 -12.043  0.00  0.00     0.003 A 
ATOM      6  C   LIG d   1      26.896   3.769 -12.977  0.00  0.00     0.059 A 
ATOM      7  C   LIG d   1      25.661   5.446 -11.756  0.00  0.00     0.030 A 
ATOM      8  C   LIG d   1      26.864   4.928 -12.215  0.00  0.00     0.142 A 
ENDROOT
BRANCH   3   9
ATOM      9  C   LIG d   1      23.155   2.876 -13.129  0.00  0.00     0.136 C 
ATOM     10  O   LIG d   1      23.161   2.563 -14.556  0.00  0.00    -0.353 OA
ATOM     11  C   LIG d   1      22.384   3.568 -15.226  0.00  0.00     0.145 C 
ATOM     12  C   LIG d   1      21.198   3.758 -14.309  0.00  0.00     0.063 C 
ATOM     13  C   LIG d   1      21.886   3.758 -12.950  0.00  0.00     0.039 C 
BRANCH  12  14
ATOM     14  C   LIG d   1      20.232   2.590 -14.518  0.00  0.00     0.151 C 
BRANCH  14  15
ATOM     15  O   LIG d   1      18.893   2.943 -14.170  0.00  0.00    -0.331 OA
BRANCH  15  16
ATOM     16  C   LIG d   1      17.951   2.023 -14.559  0.00  0.00     0.094 A 
ATOM     17  C   LIG d   1      16.576   2.212 -14.507  0.00  0.00     0.026 A 
ATOM     18  C   LIG d   1      15.697   1.197 -14.903  0.00  0.00     0.019 A 
ATOM     19  C   LIG d   1      16.138  -0.055 -15.356  0.00  0.00     0.056 A 
ATOM     20  C   LIG d   1      17.535  -0.200 -15.446  0.00  0.00     0.019 A 
ATOM     21  C   LIG d   1      18.428   0.813 -15.049  0.00  0.00     0.026 A 
BRANCH  19  22
ATOM     22  N   LIG d   1      15.235  -1.060 -15.755  0.00  0.00    -0.345 N 
ATOM     23  C   LIG d   1      14.348  -1.631 -14.704  0.00  0.00     0.119 C 
ATOM     24  C   LIG d   1      13.587  -2.876 -15.211  0.00  0.00     0.101 C 
ATOM     25  N   LIG d   1      12.817  -2.565 -16.436  0.00  0.00    -0.249 NA
ATOM     26  C   LIG d   1      13.712  -2.079 -17.508  0.00  0.00     0.101 C 
ATOM     27  C   LIG d   1      14.516  -0.847 -17.045  0.00  0.00     0.119 C 
BRANCH  25  28
ATOM     28  C   LIG d   1      11.968  -3.580 -16.908  0.00  0.00     0.037 A 
ATOM     29  C   LIG d   1      12.047  -4.909 -16.495  0.00  0.00     0.013 A 
ATOM     30  C   LIG d   1      11.154  -5.875 -16.977  0.00  0.00     0.019 A 
ATOM     31  C   LIG d   1      10.141  -5.548 -17.886  0.00  0.00     0.070 A 
ATOM     32  C   LIG d   1      10.088  -4.220 -18.335  0.00  0.00     0.019 A 
ATOM     33  C   LIG d   1      10.990  -3.259 -17.856  0.00  0.00     0.013 A 
BRANCH  31  34
ATOM     34  N   LIG d   1       9.188  -6.511 -18.299  0.00  0.00    -0.240 N 
ATOM     35  C   LIG d   1       8.248  -7.164 -17.517  0.00  0.00     0.352 A 
ATOM     36  O   LIG d   1       8.096  -7.113 -16.304  0.00  0.00    -0.244 OA
ATOM     37  N   LIG d   1       7.488  -7.933 -18.414  0.00  0.00    -0.200 N 
ATOM     38  N   LIG d   1       7.997  -7.810 -19.689  0.00  0.00    -0.144 NA
ATOM     39  C   LIG d   1       8.973  -6.971 -19.551  0.00  0.00     0.207 A 
BRANCH  37  40
ATOM     40  C   LIG d   1       6.482  -8.952 -18.107  0.00  0.00     0.137 C 
BRANCH  40  41
ATOM     41  C   LIG d   1       7.094 -10.104 -17.286  0.00  0.00     0.027 C 
ATOM     42  C   LIG d   1       7.516 -11.290 -18.146  0.00  0.00     0.002 C 
ENDBRANCH  40  41
BRANCH  40  43
ATOM     43  C   LIG d   1       5.190  -8.406 -17.430  0.00  0.00     0.133 C 
ATOM     44  C   LIG d   1       4.406  -7.425 -18.296  0.00  0.00     0.034 C 
BRANCH  43  45
ATOM     45  O   LIG d   1       5.455  -7.844 -16.145  0.00  0.00    -0.383 OA
ATOM     46  H   LIG d   1       4.758  -7.204 -15.930  0.00  0.00     0.210 HD
ENDBRANCH  43  45
ENDBRANCH  40  43
ENDBRANCH  37  40
ENDBRANCH  31  34
ENDBRANCH  25  28
ENDBRANCH  19  22
ENDBRANCH  15  16
ENDBRANCH  14  15
ENDBRANCH  12  14
BRANCH   9  47
ATOM     47  C   LIG d   1      23.004   1.568 -12.317  0.00  0.00     0.161 C 
BRANCH  47  48
ATOM     48  N   LIG d   1      23.318   1.697 -10.910  0.00  0.00    -0.228 N 
ATOM     49  N   LIG d   1      22.452   2.265 -10.050  0.00  0.00    -0.145 NA
ATOM     50  C   LIG d   1      23.120   2.157  -8.897  0.00  0.00     0.221 A 
ATOM     51  N   LIG d   1      24.327   1.524  -8.980  0.00  0.00    -0.201 NA
ATOM     52  C   LIG d   1      24.420   1.234 -10.258  0.00  0.00     0.197 A 
ENDBRANCH  47  48
ENDBRANCH   9  47
ENDBRANCH   3   9
TORSDOF 13
ENDMDL
MODEL 7
REMARK minimizedAffinity -8.23381233REMARK CNNscore 0.274670124REMARK CNNaffinity 6.35511208REMARK  13 active torsions:
REMARK  status: ('A' for Active; 'I' for Inactive)
REMARK    1  A    between atoms: O_4  and  C_21 
REMARK    2  A    between atoms: O_4  and  C_27 
REMARK    3  A    between atoms: O_5  and  C_43 
REMARK    4  A    between atoms: N_7  and  C_19 
REMARK    5  A    between atoms: N_9  and  C_33 
REMARK    6  A    between atoms: N_10  and  C_39 
REMARK    7  A    between atoms: N_12  and  C_40 
REMARK    8  A    between atoms: N_13  and  C_44 
REMARK    9  A    between atoms: C_15  and  C_19 
REMARK   10  A    between atoms: C_15  and  C_20 
REMARK   11  A    between atoms: C_17  and  C_21 
REMARK   12  A    between atoms: C_40  and  C_45 
REMARK   13  A    between atoms: C_40  and  C_43 
ROOT
ATOM      1  F   LIG d   1       9.250  23.889  -1.547  0.00  0.00    -0.204 F 
ATOM      2  F   LIG d   1       6.793  27.863  -1.038  0.00  0.00    -0.204 F 
ATOM      3  C   LIG d   1       8.340  24.379   0.592  0.00  0.00     0.032 A 
ATOM      4  C   LIG d   1       8.553  24.713  -0.753  0.00  0.00     0.141 A 
ATOM      5  C   LIG d   1       7.541  25.251   1.361  0.00  0.00     0.003 A 
ATOM      6  C   LIG d   1       8.052  25.889  -1.305  0.00  0.00     0.059 A 
ATOM      7  C   LIG d   1       7.016  26.420   0.810  0.00  0.00     0.030 A 
ATOM      8  C   LIG d   1       7.287  26.734  -0.515  0.00  0.00     0.142 A 
ENDROOT
BRANCH   3   9
ATOM      9  C   LIG d   1       8.889  23.087   1.197  0.00  0.00     0.136 C 
ATOM     10  O   LIG d   1       8.548  23.076   2.618  0.00  0.00    -0.353 OA
ATOM     11  C   LIG d   1       9.709  23.502   3.348  0.00  0.00     0.145 C 
ATOM     12  C   LIG d   1      10.841  22.789   2.647  0.00  0.00     0.063 C 
ATOM     13  C   LIG d   1      10.442  22.984   1.190  0.00  0.00     0.039 C 
BRANCH  12  14
ATOM     14  C   LIG d   1      10.849  21.327   3.101  0.00  0.00     0.151 C 
BRANCH  14  15
ATOM     15  O   LIG d   1      11.119  20.440   2.016  0.00  0.00    -0.331 OA
BRANCH  15  16
ATOM     16  C   LIG d   1      10.479  19.228   2.109  0.00  0.00     0.094 A 
ATOM     17  C   LIG d   1       9.923  18.530   1.045  0.00  0.00     0.026 A 
ATOM     18  C   LIG d   1       9.267  17.312   1.251  0.00  0.00     0.019 A 
ATOM     19  C   LIG d   1       9.120  16.734   2.521  0.00  0.00     0.056 A 
ATOM     20  C   LIG d   1       9.737  17.436   3.573  0.00  0.00     0.019 A 
ATOM     21  C   LIG d   1      10.398  18.664   3.376  0.00  0.00     0.026 A 
BRANCH  19  22
ATOM     22  N   LIG d   1       8.461  15.502   2.705  0.00  0.00    -0.345 N 
ATOM     23  C   LIG d   1       8.219  14.675   1.490  0.00  0.00     0.119 C 
ATOM     24  C   LIG d   1       7.286  13.480   1.787  0.00  0.00     0.101 C 
ATOM     25  N   LIG d   1       7.821  12.650   2.890  0.00  0.00    -0.249 NA
ATOM     26  C   LIG d   1       7.981  13.454   4.121  0.00  0.00     0.101 C 
ATOM     27  C   LIG d   1       8.888  14.677   3.873  0.00  0.00     0.119 C 
BRANCH  25  28
ATOM     28  C   LIG d   1       7.135  11.453   3.153  0.00  0.00     0.037 A 
ATOM     29  C   LIG d   1       7.072  10.858   4.412  0.00  0.00     0.013 A 
ATOM     30  C   LIG d   1       6.346   9.678   4.623  0.00  0.00     0.019 A 
ATOM     31  C   LIG d   1       5.647   9.051   3.585  0.00  0.00     0.070 A 
ATOM     32  C   LIG d   1       5.746   9.626   2.310  0.00  0.00     0.019 A 
ATOM     33  C   LIG d   1       6.481  10.802   2.101  0.00  0.00     0.013 A 
BRANCH  31  34
ATOM     34  N   LIG d   1       4.845   7.910   3.827  0.00  0.00    -0.240 N 
ATOM     35  C   LIG d   1       3.749   7.473   3.098  0.00  0.00     0.352 A 
ATOM     36  O   LIG d   1       3.196   8.016   2.152  0.00  0.00    -0.244 OA
ATOM     37  N   LIG d   1       3.376   6.251   3.684  0.00  0.00    -0.200 N 
ATOM     38  N   LIG d   1       4.170   5.993   4.780  0.00  0.00    -0.144 NA
ATOM     39  C   LIG d   1       5.000   6.987   4.801  0.00  0.00     0.207 A 
BRANCH  37  40
ATOM     40  C   LIG d   1       2.177   5.452   3.425  0.00  0.00     0.137 C 
BRANCH  40  41
ATOM     41  C   LIG d   1       0.904   6.212   3.848  0.00  0.00     0.027 C 
ATOM     42  C   LIG d   1       0.772   6.362   5.358  0.00  0.00     0.002 C 
ENDBRANCH  40  41
BRANCH  40  43
ATOM     43  C   LIG d   1       2.054   4.918   1.968  0.00  0.00     0.133 C 
ATOM     44  C   LIG d   1       0.668   5.102   1.357  0.00  0.00     0.034 C 
BRANCH  43  45
ATOM     45  O   LIG d   1       2.476   3.559   1.858  0.00  0.00    -0.383 OA
ATOM     46  H   LIG d   1       2.051   3.157   1.084  0.00  0.00     0.210 HD
ENDBRANCH  43  45
ENDBRANCH  40  43
ENDBRANCH  37  40
ENDBRANCH  31  34
ENDBRANCH  25  28
ENDBRANCH  19  22
ENDBRANCH  15  16
ENDBRANCH  14  15
ENDBRANCH  12  14
BRANCH   9  47
ATOM     47  C   LIG d   1       8.278  21.842   0.512  0.00  0.00     0.161 C 
BRANCH  47  48
ATOM     48  N   LIG d   1       6.849  21.920   0.292  0.00  0.00    -0.228 N 
ATOM     49  N   LIG d   1       6.336  21.970  -0.952  0.00  0.00    -0.145 NA
ATOM     50  C   LIG d   1       5.026  22.013  -0.692  0.00  0.00     0.221 A 
ATOM     51  N   LIG d   1       4.691  21.953   0.631  0.00  0.00    -0.201 NA
ATOM     52  C   LIG d   1       5.860  21.883   1.226  0.00  0.00     0.197 A 
ENDBRANCH  47  48
ENDBRANCH   9  47
ENDBRANCH   3   9
TORSDOF 13
ENDMDL
MODEL 8
REMARK minimizedAffinity -6.86543179REMARK CNNscore 0.263634354REMARK CNNaffinity 6.19220209REMARK  13 active torsions:
REMARK  status: ('A' for Active; 'I' for Inactive)
REMARK    1  A    between atoms: O_4  and  C_21 
REMARK    2  A    between atoms: O_4  and  C_27 
REMARK    3  A    between atoms: O_5  and  C_43 
REMARK    4  A    between atoms: N_7  and  C_19 
REMARK    5  A    between atoms: N_9  and  C_33 
REMARK    6  A    between atoms: N_10  and  C_39 
REMARK    7  A    between atoms: N_12  and  C_40 
REMARK    8  A    between atoms: N_13  and  C_44 
REMARK    9  A    between atoms: C_15  and  C_19 
REMARK   10  A    between atoms: C_15  and  C_20 
REMARK   11  A    between atoms: C_17  and  C_21 
REMARK   12  A    between atoms: C_40  and  C_45 
REMARK   13  A    between atoms: C_40  and  C_43 
ROOT
ATOM      1  F   LIG d   1       8.257  22.936  -1.831  0.00  0.00    -0.204 F 
ATOM      2  F   LIG d   1       8.362  27.544  -0.913  0.00  0.00    -0.204 F 
ATOM      3  C   LIG d   1       8.492  23.624   0.431  0.00  0.00     0.032 A 
ATOM      4  C   LIG d   1       8.364  23.925  -0.932  0.00  0.00     0.141 A 
ATOM      5  C   LIG d   1       8.531  24.706   1.335  0.00  0.00     0.003 A 
ATOM      6  C   LIG d   1       8.336  25.238  -1.394  0.00  0.00     0.059 A 
ATOM      7  C   LIG d   1       8.481  26.025   0.883  0.00  0.00     0.030 A 
ATOM      8  C   LIG d   1       8.397  26.278  -0.479  0.00  0.00     0.142 A 
ENDROOT
BRANCH   3   9
ATOM      9  C   LIG d   1       8.521  22.183   0.938  0.00  0.00     0.136 C 
ATOM     10  O   LIG d   1       9.493  22.108   2.027  0.00  0.00    -0.353 OA
ATOM     11  C   LIG d   1      10.712  21.575   1.487  0.00  0.00     0.145 C 
ATOM     12  C   LIG d   1      10.234  20.469   0.575  0.00  0.00     0.063 C 
ATOM     13  C   LIG d   1       9.048  21.148  -0.098  0.00  0.00     0.039 C 
BRANCH  12  14
ATOM     14  C   LIG d   1       9.855  19.261   1.435  0.00  0.00     0.151 C 
BRANCH  14  15
ATOM     15  O   LIG d   1      10.162  18.031   0.781  0.00  0.00    -0.331 OA
BRANCH  15  16
ATOM     16  C   LIG d   1       9.423  16.961   1.223  0.00  0.00     0.094 A 
ATOM     17  C   LIG d   1       9.855  15.641   1.243  0.00  0.00     0.026 A 
ATOM     18  C   LIG d   1       9.012  14.617   1.689  0.00  0.00     0.019 A 
ATOM     19  C   LIG d   1       7.699  14.851   2.125  0.00  0.00     0.056 A 
ATOM     20  C   LIG d   1       7.306  16.202   2.143  0.00  0.00     0.019 A 
ATOM     21  C   LIG d   1       8.146  17.239   1.695  0.00  0.00     0.026 A 
BRANCH  19  22
ATOM     22  N   LIG d   1       6.869  13.805   2.577  0.00  0.00    -0.345 N 
ATOM     23  C   LIG d   1       5.743  14.175   3.478  0.00  0.00     0.119 C 
ATOM     24  C   LIG d   1       5.065  12.929   4.089  0.00  0.00     0.101 C 
ATOM     25  N   LIG d   1       4.608  12.001   3.031  0.00  0.00    -0.249 NA
ATOM     26  C   LIG d   1       5.743  11.567   2.188  0.00  0.00     0.101 C 
ATOM     27  C   LIG d   1       6.472  12.778   1.570  0.00  0.00     0.119 C 
BRANCH  25  28
ATOM     28  C   LIG d   1       3.847  10.900   3.459  0.00  0.00     0.037 A 
ATOM     29  C   LIG d   1       3.773  10.480   4.786  0.00  0.00     0.013 A 
ATOM     30  C   LIG d   1       2.973   9.392   5.160  0.00  0.00     0.019 A 
ATOM     31  C   LIG d   1       2.208   8.687   4.223  0.00  0.00     0.070 A 
ATOM     32  C   LIG d   1       2.316   9.082   2.882  0.00  0.00     0.019 A 
ATOM     33  C   LIG d   1       3.125  10.167   2.511  0.00  0.00     0.013 A 
BRANCH  31  34
ATOM     34  N   LIG d   1       1.335   7.647   4.624  0.00  0.00    -0.240 N 
ATOM     35  C   LIG d   1       1.433   6.295   4.328  0.00  0.00     0.352 A 
ATOM     36  O   LIG d   1       2.235   5.730   3.598  0.00  0.00    -0.244 OA
ATOM     37  N   LIG d   1       0.389   5.683   5.041  0.00  0.00    -0.200 N 
ATOM     38  N   LIG d   1      -0.365   6.638   5.688  0.00  0.00    -0.144 NA
ATOM     39  C   LIG d   1       0.240   7.749   5.409  0.00  0.00     0.207 A 
BRANCH  37  40
ATOM     40  C   LIG d   1      -0.080   4.298   4.949  0.00  0.00     0.137 C 
BRANCH  40  41
ATOM     41  C   LIG d   1      -0.824   3.879   6.233  0.00  0.00     0.027 C 
ATOM     42  C   LIG d   1      -0.269   2.603   6.853  0.00  0.00     0.002 C 
ENDBRANCH  40  41
BRANCH  40  43
ATOM     43  C   LIG d   1      -0.927   3.982   3.681  0.00  0.00     0.133 C 
ATOM     44  C   LIG d   1      -2.412   4.296   3.836  0.00  0.00     0.034 C 
BRANCH  43  45
ATOM     45  O   LIG d   1      -0.739   2.640   3.233  0.00  0.00    -0.383 OA
ATOM     46  H   LIG d   1      -1.517   2.366   2.719  0.00  0.00     0.210 HD
ENDBRANCH  43  45
ENDBRANCH  40  43
ENDBRANCH  37  40
ENDBRANCH  31  34
ENDBRANCH  25  28
ENDBRANCH  19  22
ENDBRANCH  15  16
ENDBRANCH  14  15
ENDBRANCH  12  14
BRANCH   9  47
ATOM     47  C   LIG d   1       7.132  21.743   1.459  0.00  0.00     0.161 C 
BRANCH  47  48
ATOM     48  N   LIG d   1       6.022  22.159   0.628  0.00  0.00    -0.228 N 
ATOM     49  N   LIG d   1       5.266  23.225   0.953  0.00  0.00    -0.145 NA
ATOM     50  C   LIG d   1       4.403  23.254  -0.067  0.00  0.00     0.221 A 
ATOM     51  N   LIG d   1       4.599  22.299  -1.024  0.00  0.00    -0.201 NA
ATOM     52  C   LIG d   1       5.633  21.632  -0.566  0.00  0.00     0.197 A 
ENDBRANCH  47  48
ENDBRANCH   9  47
ENDBRANCH   3   9
TORSDOF 13
ENDMDL
MODEL 9
REMARK minimizedAffinity -6.61176109REMARK CNNscore 0.251277983REMARK CNNaffinity 5.82695436REMARK  13 active torsions:
REMARK  status: ('A' for Active; 'I' for Inactive)
REMARK    1  A    between atoms: O_4  and  C_21 
REMARK    2  A    between atoms: O_4  and  C_27 
REMARK    3  A    between atoms: O_5  and  C_43 
REMARK    4  A    between atoms: N_7  and  C_19 
REMARK    5  A    between atoms: N_9  and  C_33 
REMARK    6  A    between atoms: N_10  and  C_39 
REMARK    7  A    between atoms: N_12  and  C_40 
REMARK    8  A    between atoms: N_13  and  C_44 
REMARK    9  A    between atoms: C_15  and  C_19 
REMARK   10  A    between atoms: C_15  and  C_20 
REMARK   11  A    between atoms: C_17  and  C_21 
REMARK   12  A    between atoms: C_40  and  C_45 
REMARK   13  A    between atoms: C_40  and  C_43 
ROOT
ATOM      1  F   LIG d   1       5.305  26.033   1.633  0.00  0.00    -0.204 F 
ATOM      2  F   LIG d   1       1.556  24.754   4.161  0.00  0.00    -0.204 F 
ATOM      3  C   LIG d   1       4.387  23.873   1.264  0.00  0.00     0.032 A 
ATOM      4  C   LIG d   1       4.389  25.103   1.937  0.00  0.00     0.141 A 
ATOM      5  C   LIG d   1       3.358  22.961   1.577  0.00  0.00     0.003 A 
ATOM      6  C   LIG d   1       3.453  25.401   2.922  0.00  0.00     0.059 A 
ATOM      7  C   LIG d   1       2.401  23.260   2.548  0.00  0.00     0.030 A 
ATOM      8  C   LIG d   1       2.466  24.473   3.220  0.00  0.00     0.142 A 
ENDROOT
BRANCH   3   9
ATOM      9  C   LIG d   1       5.415  23.546   0.180  0.00  0.00     0.136 C 
ATOM     10  O   LIG d   1       5.245  22.144  -0.193  0.00  0.00    -0.353 OA
ATOM     11  C   LIG d   1       6.247  21.384   0.498  0.00  0.00     0.145 C 
ATOM     12  C   LIG d   1       7.482  22.246   0.377  0.00  0.00     0.063 C 
ATOM     13  C   LIG d   1       6.895  23.624   0.654  0.00  0.00     0.039 C 
BRANCH  12  14
ATOM     14  C   LIG d   1       8.050  22.084  -1.035  0.00  0.00     0.151 C 
BRANCH  14  15
ATOM     15  O   LIG d   1       9.441  21.764  -1.010  0.00  0.00    -0.331 OA
BRANCH  15  16
ATOM     16  C   LIG d   1       9.861  21.176   0.158  0.00  0.00     0.094 A 
ATOM     17  C   LIG d   1       9.704  19.835   0.483  0.00  0.00     0.026 A 
ATOM     18  C   LIG d   1      10.145  19.340   1.715  0.00  0.00     0.019 A 
ATOM     19  C   LIG d   1      10.751  20.151   2.686  0.00  0.00     0.056 A 
ATOM     20  C   LIG d   1      10.943  21.493   2.310  0.00  0.00     0.019 A 
ATOM     21  C   LIG d   1      10.502  22.002   1.074  0.00  0.00     0.026 A 
BRANCH  19  22
ATOM     22  N   LIG d   1      11.194  19.629   3.919  0.00  0.00    -0.345 N 
ATOM     23  C   LIG d   1      12.379  20.279   4.543  0.00  0.00     0.119 C 
ATOM     24  C   LIG d   1      12.905  19.472   5.751  0.00  0.00     0.101 C 
ATOM     25  N   LIG d   1      11.836  19.257   6.752  0.00  0.00    -0.249 NA
ATOM     26  C   LIG d   1      10.694  18.535   6.151  0.00  0.00     0.101 C 
ATOM     27  C   LIG d   1      10.144  19.288   4.923  0.00  0.00     0.119 C 
BRANCH  25  28
ATOM     28  C   LIG d   1      12.231  18.662   7.961  0.00  0.00     0.037 A 
ATOM     29  C   LIG d   1      13.402  18.993   8.641  0.00  0.00     0.013 A 
ATOM     30  C   LIG d   1      13.731  18.387   9.860  0.00  0.00     0.019 A 
ATOM     31  C   LIG d   1      12.898  17.431  10.453  0.00  0.00     0.070 A 
ATOM     32  C   LIG d   1      11.742  17.066   9.748  0.00  0.00     0.019 A 
ATOM     33  C   LIG d   1      11.421  17.669   8.523  0.00  0.00     0.013 A 
BRANCH  31  34
ATOM     34  N   LIG d   1      13.194  16.890  11.727  0.00  0.00    -0.240 N 
ATOM     35  C   LIG d   1      12.299  16.460  12.696  0.00  0.00     0.352 A 
ATOM     36  O   LIG d   1      11.078  16.532  12.692  0.00  0.00    -0.244 OA
ATOM     37  N   LIG d   1      13.093  15.921  13.722  0.00  0.00    -0.200 N 
ATOM     38  N   LIG d   1      14.427  16.086  13.421  0.00  0.00    -0.144 NA
ATOM     39  C   LIG d   1      14.414  16.647  12.254  0.00  0.00     0.207 A 
BRANCH  37  40
ATOM     40  C   LIG d   1      12.676  15.491  15.058  0.00  0.00     0.137 C 
BRANCH  40  41
ATOM     41  C   LIG d   1      12.797  13.961  15.210  0.00  0.00     0.027 C 
ATOM     42  C   LIG d   1      12.105  13.195  14.089  0.00  0.00     0.002 C 
ENDBRANCH  40  41
BRANCH  40  43
ATOM     43  C   LIG d   1      13.387  16.229  16.230  0.00  0.00     0.133 C 
ATOM     44  C   LIG d   1      13.121  17.730  16.268  0.00  0.00     0.034 C 
BRANCH  43  45
ATOM     45  O   LIG d   1      14.790  15.965  16.256  0.00  0.00    -0.383 OA
ATOM     46  H   LIG d   1      15.240  16.692  16.716  0.00  0.00     0.210 HD
ENDBRANCH  43  45
ENDBRANCH  40  43
ENDBRANCH  37  40
ENDBRANCH  31  34
ENDBRANCH  25  28
ENDBRANCH  19  22
ENDBRANCH  15  16
ENDBRANCH  14  15
ENDBRANCH  12  14
BRANCH   9  47
ATOM     47  C   LIG d   1       5.217  24.439  -1.068  0.00  0.00     0.161 C 
BRANCH  47  48
ATOM     48  N   LIG d   1       3.834  24.718  -1.392  0.00  0.00    -0.228 N 
ATOM     49  N   LIG d   1       3.362  25.979  -1.414  0.00  0.00    -0.145 NA
ATOM     50  C   LIG d   1       2.090  25.775  -1.767  0.00  0.00     0.221 A 
ATOM     51  N   LIG d   1       1.751  24.473  -2.004  0.00  0.00    -0.201 NA
ATOM     52  C   LIG d   1       2.873  23.831  -1.771  0.00  0.00     0.197 A 
ENDBRANCH  47  48
ENDBRANCH   9  47
ENDBRANCH   3   9
TORSDOF 13
ENDMDL
