REMARK  2 active torsions:
REMARK  status: ('A' for Active; 'I' for Inactive)
REMARK    1  A    between atoms: O_1  and  C_9 
REMARK    2  A    between atoms: N_3  and  C_4 
REMARK       I    between atoms: N_3  and  C_10 
ROOT
ATOM      1  C   LIG d   1       4.833  22.820  -7.495  0.00  0.00     0.034 A 
ATOM      2  C   LIG d   1       4.088  21.655  -7.296  0.00  0.00     0.032 A 
ATOM      3  C   LIG d   1       5.504  22.995  -8.713  0.00  0.00     0.032 A 
ATOM      4  C   LIG d   1       4.012  20.679  -8.296  0.00  0.00     0.039 A 
ATOM      5  C   LIG d   1       5.429  22.022  -9.713  0.00  0.00     0.039 A 
ATOM      6  C   LIG d   1       4.684  20.872  -9.497  0.00  0.00     0.065 A 
ENDROOT
BRANCH   1   7
ATOM      7  N   LIG d   1       4.958  23.849  -6.539  0.00  0.00    -0.328 N 
ATOM      8  C   LIG d   1       5.993  24.759  -6.410  0.00  0.00     0.218 C 
ATOM      9  O   LIG d   1       6.998  24.843  -7.105  0.00  0.00    -0.274 OA
ATOM     10  C   LIG d   1       5.766  25.704  -5.257  0.00  0.00     0.117 C 
ATOM     11  H   LIG d   1       4.201  23.927  -5.873  0.00  0.00     0.169 HD
ENDBRANCH   1   7
BRANCH   6  12
ATOM     12  O   LIG d   1       4.636  19.947 -10.497  0.00  0.00    -0.361 OA
ATOM     13  H   LIG d   1       5.015  19.116 -10.167  0.00  0.00     0.217 HD
ENDBRANCH   6  12
TORSDOF 2
