MODEL 1
REMARK minimizedAffinity -7.25505209REMARK CNNscore 0.527584791REMARK CNNaffinity 4.58018208REMARK  11 active torsions:
REMARK  status: ('A' for Active; 'I' for Inactive)
REMARK    1  A    between atoms: O_2  and  C_17 
REMARK    2  A    between atoms: O_2  and  C_19 
REMARK    3  A    between atoms: O_3  and  C_13 
REMARK    4  A    between atoms: O_4  and  C_14 
REMARK    5  A    between atoms: O_5  and  C_15 
REMARK    6  A    between atoms: O_6  and  C_18 
REMARK    7  A    between atoms: O_8  and  C_21 
REMARK    8  A    between atoms: O_11  and  C_30 
REMARK    9  A    between atoms: O_12  and  C_33 
REMARK   10  A    between atoms: C_16  and  C_18 
REMARK   11  A    between atoms: C_22  and  C_25 
ROOT
ATOM      1  C   UNK d   1      25.817   3.058  11.886  0.00  0.00     0.106 A 
ATOM      2  C   UNK d   1      25.696   4.362  12.403  0.00  0.00     0.054 A 
ATOM      3  C   UNK d   1      25.510   2.823  10.534  0.00  0.00     0.101 A 
ATOM      4  C   UNK d   1      25.224   5.437  11.626  0.00  0.00     0.001 A 
ATOM      5  C   UNK d   1      25.062   3.883   9.745  0.00  0.00     0.040 A 
ATOM      6  C   UNK d   1      24.913   5.165  10.287  0.00  0.00     0.017 A 
ENDROOT
BRANCH   1   7
ATOM      7  O   UNK d   1      26.212   1.961  12.619  0.00  0.00    -0.315 OA
BRANCH   7   8
ATOM      8  C   UNK d   1      25.275   1.396  13.541  0.00  0.00     0.299 C 
ATOM      9  O   UNK d   1      25.582   1.840  14.865  0.00  0.00    -0.340 OA
ATOM     10  C   UNK d   1      24.670   1.384  15.855  0.00  0.00     0.253 C 
ATOM     11  C   UNK d   1      24.663  -0.145  15.916  0.00  0.00     0.189 C 
ATOM     12  C   UNK d   1      24.394  -0.722  14.525  0.00  0.00     0.183 C 
ATOM     13  C   UNK d   1      25.352  -0.145  13.478  0.00  0.00     0.205 C 
BRANCH  10  14
ATOM     14  C   UNK d   1      25.037   1.947  17.240  0.00  0.00     0.172 C 
ATOM     15  O   UNK d   1      26.167   2.213  17.616  0.00  0.00    -0.648 OA
BRANCH  14  16
ATOM     16  O   UNK d   1      23.954   2.186  18.027  0.00  0.00    -0.774 OA
ATOM     17  H   UNK d   1      23.119   1.839  17.633  0.00  0.00     0.167 HD
ENDBRANCH  14  16
ENDBRANCH  10  14
BRANCH  11  18
ATOM     18  O   UNK d   1      23.627  -0.596  16.812  0.00  0.00    -0.390 OA
ATOM     19  H   UNK d   1      23.753  -1.566  16.890  0.00  0.00     0.210 HD
ENDBRANCH  11  18
BRANCH  12  20
ATOM     20  O   UNK d   1      24.516  -2.153  14.571  0.00  0.00    -0.390 OA
ATOM     21  H   UNK d   1      23.618  -2.515  14.683  0.00  0.00     0.210 HD
ENDBRANCH  12  20
BRANCH  13  22
ATOM     22  O   UNK d   1      24.941  -0.645  12.195  0.00  0.00    -0.388 OA
ATOM     23  H   UNK d   1      25.065  -1.613  12.237  0.00  0.00     0.210 HD
ENDBRANCH  13  22
ENDBRANCH   7   8
ENDBRANCH   1   7
BRANCH   3  24
ATOM     24  O   UNK d   1      25.669   1.538  10.075  0.00  0.00    -0.353 OA
ATOM     25  C   UNK d   1      26.410   1.365   8.874  0.00  0.00     0.210 C 
ENDBRANCH   3  24
BRANCH   4  26
ATOM     26  C   UNK d   1      25.050   6.794  12.229  0.00  0.00     0.090 A 
ATOM     27  O   UNK d   1      24.041   7.561  11.656  0.00  0.00    -0.309 OA
ATOM     28  C   UNK d   1      23.806   8.826  12.139  0.00  0.00     0.095 A 
ATOM     29  C   UNK d   1      24.543   9.405  13.175  0.00  0.00     0.081 A 
ATOM     30  C   UNK d   1      22.768   9.538  11.533  0.00  0.00     0.075 A 
ATOM     31  C   UNK d   1      25.628   8.602  13.772  0.00  0.00     0.190 A 
ATOM     32  C   UNK d   1      24.230  10.704  13.602  0.00  0.00     0.085 A 
ATOM     33  O   UNK d   1      26.368   8.986  14.667  0.00  0.00    -0.287 OA
ATOM     34  C   UNK d   1      25.817   7.247  13.230  0.00  0.00     0.094 A 
ATOM     35  C   UNK d   1      23.192  11.419  12.998  0.00  0.00     0.074 A 
ATOM     36  C   UNK d   1      22.470  10.825  11.966  0.00  0.00     0.071 A 
BRANCH  32  37
ATOM     37  O   UNK d   1      24.934  11.294  14.612  0.00  0.00    -0.360 OA
ATOM     38  H   UNK d   1      24.588  12.178  14.809  0.00  0.00     0.217 HD
ENDBRANCH  32  37
BRANCH  36  39
ATOM     39  O   UNK d   1      21.450  11.483  11.346  0.00  0.00    -0.361 OA
ATOM     40  H   UNK d   1      21.326  12.352  11.765  0.00  0.00     0.217 HD
ENDBRANCH  36  39
ENDBRANCH   4  26
TORSDOF 11
ENDMDL
MODEL 2
REMARK minimizedAffinity -7.18863678REMARK CNNscore 0.489490658REMARK CNNaffinity 4.74988842REMARK  11 active torsions:
REMARK  status: ('A' for Active; 'I' for Inactive)
REMARK    1  A    between atoms: O_2  and  C_17 
REMARK    2  A    between atoms: O_2  and  C_19 
REMARK    3  A    between atoms: O_3  and  C_13 
REMARK    4  A    between atoms: O_4  and  C_14 
REMARK    5  A    between atoms: O_5  and  C_15 
REMARK    6  A    between atoms: O_6  and  C_18 
REMARK    7  A    between atoms: O_8  and  C_21 
REMARK    8  A    between atoms: O_11  and  C_30 
REMARK    9  A    between atoms: O_12  and  C_33 
REMARK   10  A    between atoms: C_16  and  C_18 
REMARK   11  A    between atoms: C_22  and  C_25 
ROOT
ATOM      1  C   UNK d   1      20.323  -0.481  -2.051  0.00  0.00     0.106 A 
ATOM      2  C   UNK d   1      19.279  -0.970  -2.859  0.00  0.00     0.054 A 
ATOM      3  C   UNK d   1      20.888  -1.320  -1.075  0.00  0.00     0.101 A 
ATOM      4  C   UNK d   1      18.738  -2.259  -2.689  0.00  0.00     0.001 A 
ATOM      5  C   UNK d   1      20.379  -2.608  -0.909  0.00  0.00     0.040 A 
ATOM      6  C   UNK d   1      19.315  -3.063  -1.697  0.00  0.00     0.017 A 
ENDROOT
BRANCH   1   7
ATOM      7  O   UNK d   1      20.844   0.792  -2.135  0.00  0.00    -0.315 OA
BRANCH   7   8
ATOM      8  C   UNK d   1      21.373   1.218  -3.393  0.00  0.00     0.299 C 
ATOM      9  O   UNK d   1      22.428   0.339  -3.791  0.00  0.00    -0.340 OA
ATOM     10  C   UNK d   1      22.984   0.638  -5.064  0.00  0.00     0.253 C 
ATOM     11  C   UNK d   1      23.587   2.045  -5.069  0.00  0.00     0.189 C 
ATOM     12  C   UNK d   1      22.544   3.062  -4.603  0.00  0.00     0.183 C 
ATOM     13  C   UNK d   1      21.918   2.658  -3.264  0.00  0.00     0.205 C 
BRANCH  10  14
ATOM     14  C   UNK d   1      24.072  -0.383  -5.442  0.00  0.00     0.172 C 
ATOM     15  O   UNK d   1      24.789  -0.318  -6.428  0.00  0.00    -0.648 OA
BRANCH  14  16
ATOM     16  O   UNK d   1      24.218  -1.376  -4.525  0.00  0.00    -0.774 OA
ATOM     17  H   UNK d   1      23.515  -1.355  -3.833  0.00  0.00     0.167 HD
ENDBRANCH  14  16
ENDBRANCH  10  14
BRANCH  11  18
ATOM     18  O   UNK d   1      24.009   2.394  -6.403  0.00  0.00    -0.390 OA
ATOM     19  H   UNK d   1      24.482   3.248  -6.313  0.00  0.00     0.210 HD
ENDBRANCH  11  18
BRANCH  12  20
ATOM     20  O   UNK d   1      23.157   4.357  -4.491  0.00  0.00    -0.390 OA
ATOM     21  H   UNK d   1      22.972   4.836  -5.319  0.00  0.00     0.210 HD
ENDBRANCH  12  20
BRANCH  13  22
ATOM     22  O   UNK d   1      20.869   3.598  -2.977  0.00  0.00    -0.388 OA
ATOM     23  H   UNK d   1      21.312   4.462  -2.870  0.00  0.00     0.210 HD
ENDBRANCH  13  22
ENDBRANCH   7   8
ENDBRANCH   1   7
BRANCH   3  24
ATOM     24  O   UNK d   1      21.920  -0.801  -0.332  0.00  0.00    -0.353 OA
ATOM     25  C   UNK d   1      23.234  -1.251  -0.642  0.00  0.00     0.210 C 
ENDBRANCH   3  24
BRANCH   4  26
ATOM     26  C   UNK d   1      17.587  -2.719  -3.524  0.00  0.00     0.090 A 
ATOM     27  O   UNK d   1      17.245  -4.057  -3.359  0.00  0.00    -0.309 OA
ATOM     28  C   UNK d   1      16.201  -4.576  -4.087  0.00  0.00     0.095 A 
ATOM     29  C   UNK d   1      15.463  -3.834  -5.012  0.00  0.00     0.081 A 
ATOM     30  C   UNK d   1      15.896  -5.920  -3.862  0.00  0.00     0.075 A 
ATOM     31  C   UNK d   1      15.836  -2.419  -5.206  0.00  0.00     0.190 A 
ATOM     32  C   UNK d   1      14.414  -4.450  -5.710  0.00  0.00     0.085 A 
ATOM     33  O   UNK d   1      15.296  -1.657  -5.997  0.00  0.00    -0.287 OA
ATOM     34  C   UNK d   1      16.946  -1.913  -4.382  0.00  0.00     0.094 A 
ATOM     35  C   UNK d   1      14.105  -5.794  -5.487  0.00  0.00     0.074 A 
ATOM     36  C   UNK d   1      14.854  -6.517  -4.562  0.00  0.00     0.071 A 
BRANCH  32  37
ATOM     37  O   UNK d   1      13.676  -3.748  -6.621  0.00  0.00    -0.360 OA
ATOM     38  H   UNK d   1      12.975  -4.299  -7.002  0.00  0.00     0.217 HD
ENDBRANCH  32  37
BRANCH  36  39
ATOM     39  O   UNK d   1      14.592  -7.831  -4.312  0.00  0.00    -0.361 OA
ATOM     40  H   UNK d   1      13.824  -8.112  -4.837  0.00  0.00     0.217 HD
ENDBRANCH  36  39
ENDBRANCH   4  26
TORSDOF 11
ENDMDL
MODEL 3
REMARK minimizedAffinity -7.86172724REMARK CNNscore 0.405085266REMARK CNNaffinity 5.15382862REMARK  11 active torsions:
REMARK  status: ('A' for Active; 'I' for Inactive)
REMARK    1  A    between atoms: O_2  and  C_17 
REMARK    2  A    between atoms: O_2  and  C_19 
REMARK    3  A    between atoms: O_3  and  C_13 
REMARK    4  A    between atoms: O_4  and  C_14 
REMARK    5  A    between atoms: O_5  and  C_15 
REMARK    6  A    between atoms: O_6  and  C_18 
REMARK    7  A    between atoms: O_8  and  C_21 
REMARK    8  A    between atoms: O_11  and  C_30 
REMARK    9  A    between atoms: O_12  and  C_33 
REMARK   10  A    between atoms: C_16  and  C_18 
REMARK   11  A    between atoms: C_22  and  C_25 
ROOT
ATOM      1  C   UNK d   1      18.199  -3.007  -2.655  0.00  0.00     0.106 A 
ATOM      2  C   UNK d   1      18.752  -1.732  -2.887  0.00  0.00     0.054 A 
ATOM      3  C   UNK d   1      18.945  -4.151  -2.989  0.00  0.00     0.101 A 
ATOM      4  C   UNK d   1      20.010  -1.558  -3.495  0.00  0.00     0.001 A 
ATOM      5  C   UNK d   1      20.203  -3.995  -3.572  0.00  0.00     0.040 A 
ATOM      6  C   UNK d   1      20.720  -2.720  -3.828  0.00  0.00     0.017 A 
ENDROOT
BRANCH   1   7
ATOM      7  O   UNK d   1      16.949  -3.231  -2.123  0.00  0.00    -0.315 OA
BRANCH   7   8
ATOM      8  C   UNK d   1      15.814  -2.748  -2.848  0.00  0.00     0.299 C 
ATOM      9  O   UNK d   1      16.041  -2.908  -4.251  0.00  0.00    -0.340 OA
ATOM     10  C   UNK d   1      14.944  -2.515  -5.065  0.00  0.00     0.253 C 
ATOM     11  C   UNK d   1      14.626  -1.032  -4.857  0.00  0.00     0.189 C 
ATOM     12  C   UNK d   1      14.417  -0.745  -3.369  0.00  0.00     0.183 C 
ATOM     13  C   UNK d   1      15.590  -1.254  -2.525  0.00  0.00     0.205 C 
BRANCH  10  14
ATOM     14  C   UNK d   1      15.246  -2.767  -6.552  0.00  0.00     0.172 C 
ATOM     15  O   UNK d   1      14.935  -2.026  -7.471  0.00  0.00    -0.648 OA
BRANCH  14  16
ATOM     16  O   UNK d   1      15.964  -3.901  -6.770  0.00  0.00    -0.774 OA
ATOM     17  H   UNK d   1      16.063  -4.446  -5.953  0.00  0.00     0.167 HD
ENDBRANCH  14  16
ENDBRANCH  10  14
BRANCH  11  18
ATOM     18  O   UNK d   1      13.422  -0.684  -5.568  0.00  0.00    -0.390 OA
ATOM     19  H   UNK d   1      13.342   0.290  -5.487  0.00  0.00     0.210 HD
ENDBRANCH  11  18
BRANCH  12  20
ATOM     20  O   UNK d   1      14.247   0.668  -3.176  0.00  0.00    -0.390 OA
ATOM     21  H   UNK d   1      13.288   0.841  -3.146  0.00  0.00     0.210 HD
ENDBRANCH  12  20
BRANCH  13  22
ATOM     22  O   UNK d   1      15.245  -1.056  -1.143  0.00  0.00    -0.388 OA
ATOM     23  H   UNK d   1      15.169  -0.090  -1.027  0.00  0.00     0.210 HD
ENDBRANCH  13  22
ENDBRANCH   7   8
ENDBRANCH   1   7
BRANCH   3  24
ATOM     24  O   UNK d   1      18.370  -5.368  -2.719  0.00  0.00    -0.353 OA
ATOM     25  C   UNK d   1      18.803  -6.478  -3.497  0.00  0.00     0.210 C 
ENDBRANCH   3  24
BRANCH   4  26
ATOM     26  C   UNK d   1      20.534  -0.188  -3.782  0.00  0.00     0.090 A 
ATOM     27  O   UNK d   1      19.828   0.514  -4.753  0.00  0.00    -0.309 OA
ATOM     28  C   UNK d   1      20.235   1.783  -5.090  0.00  0.00     0.095 A 
ATOM     29  C   UNK d   1      21.345   2.412  -4.521  0.00  0.00     0.081 A 
ATOM     30  C   UNK d   1      19.474   2.442  -6.057  0.00  0.00     0.075 A 
ATOM     31  C   UNK d   1      22.109   1.662  -3.506  0.00  0.00     0.190 A 
ATOM     32  C   UNK d   1      21.686   3.711  -4.928  0.00  0.00     0.085 A 
ATOM     33  O   UNK d   1      23.113   2.076  -2.941  0.00  0.00    -0.287 OA
ATOM     34  C   UNK d   1      21.612   0.318  -3.169  0.00  0.00     0.094 A 
ATOM     35  C   UNK d   1      20.925   4.374  -5.896  0.00  0.00     0.074 A 
ATOM     36  C   UNK d   1      19.824   3.728  -6.452  0.00  0.00     0.071 A 
BRANCH  32  37
ATOM     37  O   UNK d   1      22.765   4.350  -4.389  0.00  0.00    -0.360 OA
ATOM     38  H   UNK d   1      22.859   5.244  -4.751  0.00  0.00     0.217 HD
ENDBRANCH  32  37
BRANCH  36  39
ATOM     39  O   UNK d   1      19.054   4.333  -7.400  0.00  0.00    -0.361 OA
ATOM     40  H   UNK d   1      19.385   5.234  -7.558  0.00  0.00     0.217 HD
ENDBRANCH  36  39
ENDBRANCH   4  26
TORSDOF 11
ENDMDL
MODEL 4
REMARK minimizedAffinity -7.68412304REMARK CNNscore 0.332043499REMARK CNNaffinity 4.36056042REMARK  11 active torsions:
REMARK  status: ('A' for Active; 'I' for Inactive)
REMARK    1  A    between atoms: O_2  and  C_17 
REMARK    2  A    between atoms: O_2  and  C_19 
REMARK    3  A    between atoms: O_3  and  C_13 
REMARK    4  A    between atoms: O_4  and  C_14 
REMARK    5  A    between atoms: O_5  and  C_15 
REMARK    6  A    between atoms: O_6  and  C_18 
REMARK    7  A    between atoms: O_8  and  C_21 
REMARK    8  A    between atoms: O_11  and  C_30 
REMARK    9  A    between atoms: O_12  and  C_33 
REMARK   10  A    between atoms: C_16  and  C_18 
REMARK   11  A    between atoms: C_22  and  C_25 
ROOT
ATOM      1  C   UNK d   1       4.720 -29.555  19.274  0.00  0.00     0.106 A 
ATOM      2  C   UNK d   1       5.695 -28.660  19.755  0.00  0.00     0.054 A 
ATOM      3  C   UNK d   1       3.489 -29.656  19.944  0.00  0.00     0.101 A 
ATOM      4  C   UNK d   1       5.503 -27.896  20.922  0.00  0.00     0.001 A 
ATOM      5  C   UNK d   1       3.274 -28.889  21.090  0.00  0.00     0.040 A 
ATOM      6  C   UNK d   1       4.270 -28.032  21.573  0.00  0.00     0.017 A 
ENDROOT
BRANCH   1   7
ATOM      7  O   UNK d   1       4.883 -30.371  18.176  0.00  0.00    -0.315 OA
BRANCH   7   8
ATOM      8  C   UNK d   1       5.306 -29.767  16.949  0.00  0.00     0.299 C 
ATOM      9  O   UNK d   1       4.206 -29.717  16.037  0.00  0.00    -0.340 OA
ATOM     10  C   UNK d   1       4.504 -29.076  14.804  0.00  0.00     0.253 C 
ATOM     11  C   UNK d   1       5.623 -29.818  14.070  0.00  0.00     0.189 C 
ATOM     12  C   UNK d   1       6.837 -29.972  14.988  0.00  0.00     0.183 C 
ATOM     13  C   UNK d   1       6.454 -30.597  16.334  0.00  0.00     0.205 C 
BRANCH  10  14
ATOM     14  C   UNK d   1       3.258 -29.015  13.903  0.00  0.00     0.172 C 
ATOM     15  O   UNK d   1       3.088 -28.227  12.987  0.00  0.00    -0.648 OA
BRANCH  14  16
ATOM     16  O   UNK d   1       2.345 -29.983  14.182  0.00  0.00    -0.774 OA
ATOM     17  H   UNK d   1       2.568 -30.485  15.001  0.00  0.00     0.167 HD
ENDBRANCH  14  16
ENDBRANCH  10  14
BRANCH  11  18
ATOM     18  O   UNK d   1       6.019 -29.076  12.900  0.00  0.00    -0.390 OA
ATOM     19  H   UNK d   1       6.650 -29.656  12.423  0.00  0.00     0.210 HD
ENDBRANCH  11  18
BRANCH  12  20
ATOM     20  O   UNK d   1       7.830 -30.779  14.334  0.00  0.00    -0.390 OA
ATOM     21  H   UNK d   1       8.466 -30.170  13.915  0.00  0.00     0.210 HD
ENDBRANCH  12  20
BRANCH  13  22
ATOM     22  O   UNK d   1       7.626 -30.582  17.166  0.00  0.00    -0.388 OA
ATOM     23  H   UNK d   1       8.273 -31.162  16.721  0.00  0.00     0.210 HD
ENDBRANCH  13  22
ENDBRANCH   7   8
ENDBRANCH   1   7
BRANCH   3  24
ATOM     24  O   UNK d   1       2.565 -30.526  19.419  0.00  0.00    -0.353 OA
ATOM     25  C   UNK d   1       1.224 -30.062  19.312  0.00  0.00     0.210 C 
ENDBRANCH   3  24
BRANCH   4  26
ATOM     26  C   UNK d   1       6.586 -27.004  21.435  0.00  0.00     0.090 A 
ATOM     27  O   UNK d   1       7.777 -27.653  21.747  0.00  0.00    -0.309 OA
ATOM     28  C   UNK d   1       8.833 -26.918  22.230  0.00  0.00     0.095 A 
ATOM     29  C   UNK d   1       8.776 -25.540  22.450  0.00  0.00     0.081 A 
ATOM     30  C   UNK d   1      10.005 -27.625  22.506  0.00  0.00     0.075 A 
ATOM     31  C   UNK d   1       7.509 -24.851  22.140  0.00  0.00     0.190 A 
ATOM     32  C   UNK d   1       9.906 -24.873  22.947  0.00  0.00     0.085 A 
ATOM     33  O   UNK d   1       7.306 -23.655  22.303  0.00  0.00    -0.287 OA
ATOM     34  C   UNK d   1       6.421 -25.684  21.603  0.00  0.00     0.094 A 
ATOM     35  C   UNK d   1      11.081 -25.578  23.223  0.00  0.00     0.074 A 
ATOM     36  C   UNK d   1      11.117 -26.951  23.000  0.00  0.00     0.071 A 
BRANCH  32  37
ATOM     37  O   UNK d   1       9.879 -23.526  23.171  0.00  0.00    -0.360 OA
ATOM     38  H   UNK d   1      10.737 -23.208  23.490  0.00  0.00     0.217 HD
ENDBRANCH  32  37
BRANCH  36  39
ATOM     39  O   UNK d   1      12.239 -27.681  23.256  0.00  0.00    -0.361 OA
ATOM     40  H   UNK d   1      12.946 -27.088  23.561  0.00  0.00     0.217 HD
ENDBRANCH  36  39
ENDBRANCH   4  26
TORSDOF 11
ENDMDL
MODEL 5
REMARK minimizedAffinity -6.35457134REMARK CNNscore 0.327973932REMARK CNNaffinity 4.2109623REMARK  11 active torsions:
REMARK  status: ('A' for Active; 'I' for Inactive)
REMARK    1  A    between atoms: O_2  and  C_17 
REMARK    2  A    between atoms: O_2  and  C_19 
REMARK    3  A    between atoms: O_3  and  C_13 
REMARK    4  A    between atoms: O_4  and  C_14 
REMARK    5  A    between atoms: O_5  and  C_15 
REMARK    6  A    between atoms: O_6  and  C_18 
REMARK    7  A    between atoms: O_8  and  C_21 
REMARK    8  A    between atoms: O_11  and  C_30 
REMARK    9  A    between atoms: O_12  and  C_33 
REMARK   10  A    between atoms: C_16  and  C_18 
REMARK   11  A    between atoms: C_22  and  C_25 
ROOT
ATOM      1  C   UNK d   1      15.582   8.604  29.160  0.00  0.00     0.106 A 
ATOM      2  C   UNK d   1      14.434   8.141  28.488  0.00  0.00     0.054 A 
ATOM      3  C   UNK d   1      15.837   9.985  29.215  0.00  0.00     0.101 A 
ATOM      4  C   UNK d   1      13.555   9.012  27.816  0.00  0.00     0.001 A 
ATOM      5  C   UNK d   1      14.962  10.863  28.573  0.00  0.00     0.040 A 
ATOM      6  C   UNK d   1      13.847  10.381  27.878  0.00  0.00     0.017 A 
ENDROOT
BRANCH   1   7
ATOM      7  O   UNK d   1      16.506   7.791  29.778  0.00  0.00    -0.315 OA
BRANCH   7   8
ATOM      8  C   UNK d   1      16.024   6.797  30.687  0.00  0.00     0.299 C 
ATOM      9  O   UNK d   1      15.615   7.424  31.906  0.00  0.00    -0.340 OA
ATOM     10  C   UNK d   1      15.059   6.529  32.860  0.00  0.00     0.253 C 
ATOM     11  C   UNK d   1      16.084   5.465  33.259  0.00  0.00     0.189 C 
ATOM     12  C   UNK d   1      16.626   4.768  32.010  0.00  0.00     0.183 C 
ATOM     13  C   UNK d   1      17.145   5.775  30.979  0.00  0.00     0.205 C 
BRANCH  10  14
ATOM     14  C   UNK d   1      14.596   7.286  34.117  0.00  0.00     0.172 C 
ATOM     15  O   UNK d   1      13.563   7.930  34.212  0.00  0.00    -0.648 OA
BRANCH  14  16
ATOM     16  O   UNK d   1      15.433   7.132  35.177  0.00  0.00    -0.774 OA
ATOM     17  H   UNK d   1      16.269   6.668  34.931  0.00  0.00     0.167 HD
ENDBRANCH  14  16
ENDBRANCH  10  14
BRANCH  11  18
ATOM     18  O   UNK d   1      15.462   4.478  34.106  0.00  0.00    -0.390 OA
ATOM     19  H   UNK d   1      16.192   3.899  34.413  0.00  0.00     0.210 HD
ENDBRANCH  11  18
BRANCH  12  20
ATOM     20  O   UNK d   1      17.677   3.863  32.388  0.00  0.00    -0.390 OA
ATOM     21  H   UNK d   1      17.277   2.977  32.473  0.00  0.00     0.210 HD
ENDBRANCH  12  20
BRANCH  13  22
ATOM     22  O   UNK d   1      17.510   5.037  29.801  0.00  0.00    -0.388 OA
ATOM     23  H   UNK d   1      18.246   4.456  30.071  0.00  0.00     0.210 HD
ENDBRANCH  13  22
ENDBRANCH   7   8
ENDBRANCH   1   7
BRANCH   3  24
ATOM     24  O   UNK d   1      16.956  10.384  29.904  0.00  0.00    -0.353 OA
ATOM     25  C   UNK d   1      16.759  10.924  31.205  0.00  0.00     0.210 C 
ENDBRANCH   3  24
BRANCH   4  26
ATOM     26  C   UNK d   1      12.382   8.476  27.060  0.00  0.00     0.090 A 
ATOM     27  O   UNK d   1      12.688   7.475  26.144  0.00  0.00    -0.309 OA
ATOM     28  C   UNK d   1      11.676   6.920  25.397  0.00  0.00     0.095 A 
ATOM     29  C   UNK d   1      10.341   7.321  25.490  0.00  0.00     0.081 A 
ATOM     30  C   UNK d   1      12.045   5.908  24.508  0.00  0.00     0.075 A 
ATOM     31  C   UNK d   1      10.016   8.396  26.446  0.00  0.00     0.190 A 
ATOM     32  C   UNK d   1       9.376   6.696  24.685  0.00  0.00     0.085 A 
ATOM     33  O   UNK d   1       8.898   8.864  26.617  0.00  0.00    -0.287 OA
ATOM     34  C   UNK d   1      11.136   8.936  27.235  0.00  0.00     0.094 A 
ATOM     35  C   UNK d   1       9.742   5.682  23.796  0.00  0.00     0.074 A 
ATOM     36  C   UNK d   1      11.078   5.299  23.717  0.00  0.00     0.071 A 
BRANCH  32  37
ATOM     37  O   UNK d   1       8.064   7.067  24.755  0.00  0.00    -0.360 OA
ATOM     38  H   UNK d   1       7.517   6.532  24.160  0.00  0.00     0.217 HD
ENDBRANCH  32  37
BRANCH  36  39
ATOM     39  O   UNK d   1      11.484   4.316  22.862  0.00  0.00    -0.361 OA
ATOM     40  H   UNK d   1      10.710   3.955  22.398  0.00  0.00     0.217 HD
ENDBRANCH  36  39
ENDBRANCH   4  26
TORSDOF 11
ENDMDL
MODEL 6
REMARK minimizedAffinity -6.71969366REMARK CNNscore 0.322391778REMARK CNNaffinity 4.51823425REMARK  11 active torsions:
REMARK  status: ('A' for Active; 'I' for Inactive)
REMARK    1  A    between atoms: O_2  and  C_17 
REMARK    2  A    between atoms: O_2  and  C_19 
REMARK    3  A    between atoms: O_3  and  C_13 
REMARK    4  A    between atoms: O_4  and  C_14 
REMARK    5  A    between atoms: O_5  and  C_15 
REMARK    6  A    between atoms: O_6  and  C_18 
REMARK    7  A    between atoms: O_8  and  C_21 
REMARK    8  A    between atoms: O_11  and  C_30 
REMARK    9  A    between atoms: O_12  and  C_33 
REMARK   10  A    between atoms: C_16  and  C_18 
REMARK   11  A    between atoms: C_22  and  C_25 
ROOT
ATOM      1  C   UNK d   1      13.136  22.648   5.775  0.00  0.00     0.106 A 
ATOM      2  C   UNK d   1      12.195  22.234   4.812  0.00  0.00     0.054 A 
ATOM      3  C   UNK d   1      13.824  23.859   5.588  0.00  0.00     0.101 A 
ATOM      4  C   UNK d   1      11.956  22.964   3.633  0.00  0.00     0.001 A 
ATOM      5  C   UNK d   1      13.582  24.606   4.434  0.00  0.00     0.040 A 
ATOM      6  C   UNK d   1      12.671  24.159   3.471  0.00  0.00     0.017 A 
ENDROOT
BRANCH   1   7
ATOM      7  O   UNK d   1      13.452  21.939   6.913  0.00  0.00    -0.315 OA
BRANCH   7   8
ATOM      8  C   UNK d   1      12.620  20.830   7.265  0.00  0.00     0.299 C 
ATOM      9  O   UNK d   1      11.617  21.259   8.191  0.00  0.00    -0.340 OA
ATOM     10  C   UNK d   1      10.695  20.242   8.559  0.00  0.00     0.253 C 
ATOM     11  C   UNK d   1      11.421  19.079   9.238  0.00  0.00     0.189 C 
ATOM     12  C   UNK d   1      12.556  18.578   8.343  0.00  0.00     0.183 C 
ATOM     13  C   UNK d   1      13.481  19.721   7.909  0.00  0.00     0.205 C 
BRANCH  10  14
ATOM     14  C   UNK d   1       9.620  20.796   9.512  0.00  0.00     0.172 C 
ATOM     15  O   UNK d   1       9.787  21.702  10.312  0.00  0.00    -0.648 OA
BRANCH  14  16
ATOM     16  O   UNK d   1       8.404  20.212   9.348  0.00  0.00    -0.774 OA
ATOM     17  H   UNK d   1       8.438  19.437   8.737  0.00  0.00     0.167 HD
ENDBRANCH  14  16
ENDBRANCH  10  14
BRANCH  11  18
ATOM     18  O   UNK d   1      10.501  17.993   9.467  0.00  0.00    -0.390 OA
ATOM     19  H   UNK d   1      10.999  17.337  10.000  0.00  0.00     0.210 HD
ENDBRANCH  11  18
BRANCH  12  20
ATOM     20  O   UNK d   1      13.308  17.574   9.043  0.00  0.00    -0.390 OA
ATOM     21  H   UNK d   1      12.963  16.707   8.761  0.00  0.00     0.210 HD
ENDBRANCH  12  20
BRANCH  13  22
ATOM     22  O   UNK d   1      14.430  19.177   6.977  0.00  0.00    -0.388 OA
ATOM     23  H   UNK d   1      14.951  18.524   7.482  0.00  0.00     0.210 HD
ENDBRANCH  13  22
ENDBRANCH   7   8
ENDBRANCH   1   7
BRANCH   3  24
ATOM     24  O   UNK d   1      14.711  24.228   6.569  0.00  0.00    -0.353 OA
ATOM     25  C   UNK d   1      14.651  25.574   7.026  0.00  0.00     0.210 C 
ENDBRANCH   3  24
BRANCH   4  26
ATOM     26  C   UNK d   1      10.996  22.459   2.605  0.00  0.00     0.090 A 
ATOM     27  O   UNK d   1      11.022  21.081   2.412  0.00  0.00    -0.309 OA
ATOM     28  C   UNK d   1      10.177  20.521   1.484  0.00  0.00     0.095 A 
ATOM     29  C   UNK d   1       9.294  21.264   0.697  0.00  0.00     0.081 A 
ATOM     30  C   UNK d   1      10.238  19.132   1.350  0.00  0.00     0.075 A 
ATOM     31  C   UNK d   1       9.279  22.727   0.884  0.00  0.00     0.190 A 
ATOM     32  C   UNK d   1       8.469  20.603  -0.226  0.00  0.00     0.085 A 
ATOM     33  O   UNK d   1       8.577  23.505   0.251  0.00  0.00    -0.287 OA
ATOM     34  C   UNK d   1      10.187  23.269   1.908  0.00  0.00     0.094 A 
ATOM     35  C   UNK d   1       8.527  19.213  -0.362  0.00  0.00     0.074 A 
ATOM     36  C   UNK d   1       9.415  18.491   0.430  0.00  0.00     0.071 A 
BRANCH  32  37
ATOM     37  O   UNK d   1       7.596  21.304  -1.008  0.00  0.00    -0.360 OA
ATOM     38  H   UNK d   1       7.081  20.711  -1.575  0.00  0.00     0.217 HD
ENDBRANCH  32  37
BRANCH  36  39
ATOM     39  O   UNK d   1       9.509  17.134   0.332  0.00  0.00    -0.361 OA
ATOM     40  H   UNK d   1       8.860  16.813  -0.317  0.00  0.00     0.217 HD
ENDBRANCH  36  39
ENDBRANCH   4  26
TORSDOF 11
ENDMDL
MODEL 7
REMARK minimizedAffinity -6.40487242REMARK CNNscore 0.295162976REMARK CNNaffinity 4.44919682REMARK  11 active torsions:
REMARK  status: ('A' for Active; 'I' for Inactive)
REMARK    1  A    between atoms: O_2  and  C_17 
REMARK    2  A    between atoms: O_2  and  C_19 
REMARK    3  A    between atoms: O_3  and  C_13 
REMARK    4  A    between atoms: O_4  and  C_14 
REMARK    5  A    between atoms: O_5  and  C_15 
REMARK    6  A    between atoms: O_6  and  C_18 
REMARK    7  A    between atoms: O_8  and  C_21 
REMARK    8  A    between atoms: O_11  and  C_30 
REMARK    9  A    between atoms: O_12  and  C_33 
REMARK   10  A    between atoms: C_16  and  C_18 
REMARK   11  A    between atoms: C_22  and  C_25 
ROOT
ATOM      1  C   UNK d   1      11.076  -0.483 -19.064  0.00  0.00     0.106 A 
ATOM      2  C   UNK d   1      11.413  -1.155 -17.873  0.00  0.00     0.054 A 
ATOM      3  C   UNK d   1      10.577  -1.219 -20.152  0.00  0.00     0.101 A 
ATOM      4  C   UNK d   1      11.319  -2.554 -17.748  0.00  0.00     0.001 A 
ATOM      5  C   UNK d   1      10.456  -2.605 -20.035  0.00  0.00     0.040 A 
ATOM      6  C   UNK d   1      10.830  -3.259 -18.856  0.00  0.00     0.017 A 
ENDROOT
BRANCH   1   7
ATOM      7  O   UNK d   1      11.210   0.874 -19.259  0.00  0.00    -0.315 OA
BRANCH   7   8
ATOM      8  C   UNK d   1      12.365   1.341 -19.962  0.00  0.00     0.299 C 
ATOM      9  O   UNK d   1      13.539   1.047 -19.200  0.00  0.00    -0.340 OA
ATOM     10  C   UNK d   1      14.754   1.415 -19.840  0.00  0.00     0.253 C 
ATOM     11  C   UNK d   1      14.788   2.923 -20.099  0.00  0.00     0.189 C 
ATOM     12  C   UNK d   1      13.538   3.349 -20.869  0.00  0.00     0.183 C 
ATOM     13  C   UNK d   1      12.257   2.866 -20.182  0.00  0.00     0.205 C 
BRANCH  10  14
ATOM     14  C   UNK d   1      15.968   1.018 -18.982  0.00  0.00     0.172 C 
ATOM     15  O   UNK d   1      17.136   1.190 -19.290  0.00  0.00    -0.648 OA
BRANCH  14  16
ATOM     16  O   UNK d   1      15.625   0.487 -17.778  0.00  0.00    -0.774 OA
ATOM     17  H   UNK d   1      14.655   0.321 -17.703  0.00  0.00     0.167 HD
ENDBRANCH  14  16
ENDBRANCH  10  14
BRANCH  11  18
ATOM     18  O   UNK d   1      15.951   3.259 -20.882  0.00  0.00    -0.390 OA
ATOM     19  H   UNK d   1      15.971   4.239 -20.912  0.00  0.00     0.210 HD
ENDBRANCH  11  18
BRANCH  12  20
ATOM     20  O   UNK d   1      13.521   4.781 -20.994  0.00  0.00    -0.390 OA
ATOM     21  H   UNK d   1      13.897   4.998 -21.867  0.00  0.00     0.210 HD
ENDBRANCH  12  20
BRANCH  13  22
ATOM     22  O   UNK d   1      11.154   3.201 -21.040  0.00  0.00    -0.388 OA
ATOM     23  H   UNK d   1      11.140   4.176 -21.082  0.00  0.00     0.210 HD
ENDBRANCH  13  22
ENDBRANCH   7   8
ENDBRANCH   1   7
BRANCH   3  24
ATOM     24  O   UNK d   1      10.241  -0.512 -21.279  0.00  0.00    -0.353 OA
ATOM     25  C   UNK d   1      10.572  -1.094 -22.535  0.00  0.00     0.210 C 
ENDBRANCH   3  24
BRANCH   4  26
ATOM     26  C   UNK d   1      11.745  -3.237 -16.488  0.00  0.00     0.090 A 
ATOM     27  O   UNK d   1      11.815  -2.409 -15.372  0.00  0.00    -0.309 OA
ATOM     28  C   UNK d   1      12.201  -2.943 -14.167  0.00  0.00     0.095 A 
ATOM     29  C   UNK d   1      12.553  -4.284 -13.995  0.00  0.00     0.081 A 
ATOM     30  C   UNK d   1      12.234  -2.065 -13.081  0.00  0.00     0.075 A 
ATOM     31  C   UNK d   1      12.500  -5.161 -15.180  0.00  0.00     0.190 A 
ATOM     32  C   UNK d   1      12.935  -4.740 -12.724  0.00  0.00     0.085 A 
ATOM     33  O   UNK d   1      12.800  -6.347 -15.186  0.00  0.00    -0.287 OA
ATOM     34  C   UNK d   1      12.056  -4.539 -16.439  0.00  0.00     0.094 A 
ATOM     35  C   UNK d   1      12.968  -3.863 -11.636  0.00  0.00     0.074 A 
ATOM     36  C   UNK d   1      12.617  -2.531 -11.828  0.00  0.00     0.071 A 
BRANCH  32  37
ATOM     37  O   UNK d   1      13.284  -6.046 -12.527  0.00  0.00    -0.360 OA
ATOM     38  H   UNK d   1      13.500  -6.213 -11.598  0.00  0.00     0.217 HD
ENDBRANCH  32  37
BRANCH  36  39
ATOM     39  O   UNK d   1      12.635  -1.638 -10.798  0.00  0.00    -0.361 OA
ATOM     40  H   UNK d   1      12.885  -2.098  -9.979  0.00  0.00     0.217 HD
ENDBRANCH  36  39
ENDBRANCH   4  26
TORSDOF 11
ENDMDL
MODEL 8
REMARK minimizedAffinity -7.78854609REMARK CNNscore 0.272248REMARK CNNaffinity 4.57031727REMARK  11 active torsions:
REMARK  status: ('A' for Active; 'I' for Inactive)
REMARK    1  A    between atoms: O_2  and  C_17 
REMARK    2  A    between atoms: O_2  and  C_19 
REMARK    3  A    between atoms: O_3  and  C_13 
REMARK    4  A    between atoms: O_4  and  C_14 
REMARK    5  A    between atoms: O_5  and  C_15 
REMARK    6  A    between atoms: O_6  and  C_18 
REMARK    7  A    between atoms: O_8  and  C_21 
REMARK    8  A    between atoms: O_11  and  C_30 
REMARK    9  A    between atoms: O_12  and  C_33 
REMARK   10  A    between atoms: C_16  and  C_18 
REMARK   11  A    between atoms: C_22  and  C_25 
ROOT
ATOM      1  C   UNK d   1      21.561   9.520  -0.778  0.00  0.00     0.106 A 
ATOM      2  C   UNK d   1      22.249   9.684   0.440  0.00  0.00     0.054 A 
ATOM      3  C   UNK d   1      20.156   9.561  -0.786  0.00  0.00     0.101 A 
ATOM      4  C   UNK d   1      21.576   9.833   1.668  0.00  0.00     0.001 A 
ATOM      5  C   UNK d   1      19.475   9.732   0.420  0.00  0.00     0.040 A 
ATOM      6  C   UNK d   1      20.175   9.855   1.626  0.00  0.00     0.017 A 
ENDROOT
BRANCH   1   7
ATOM      7  O   UNK d   1      22.169   9.307  -1.996  0.00  0.00    -0.315 OA
BRANCH   7   8
ATOM      8  C   UNK d   1      23.237   8.357  -2.055  0.00  0.00     0.299 C 
ATOM      9  O   UNK d   1      24.114   8.690  -3.135  0.00  0.00    -0.340 OA
ATOM     10  C   UNK d   1      25.248   7.841  -3.244  0.00  0.00     0.253 C 
ATOM     11  C   UNK d   1      24.814   6.394  -3.488  0.00  0.00     0.189 C 
ATOM     12  C   UNK d   1      23.825   5.956  -2.406  0.00  0.00     0.183 C 
ATOM     13  C   UNK d   1      22.659   6.942  -2.272  0.00  0.00     0.205 C 
BRANCH  10  14
ATOM     14  C   UNK d   1      26.166   8.297  -4.392  0.00  0.00     0.172 C 
ATOM     15  O   UNK d   1      25.929   9.214  -5.162  0.00  0.00    -0.648 OA
BRANCH  14  16
ATOM     16  O   UNK d   1      27.336   7.607  -4.452  0.00  0.00    -0.774 OA
ATOM     17  H   UNK d   1      27.351   6.839  -3.833  0.00  0.00     0.167 HD
ENDBRANCH  14  16
ENDBRANCH  10  14
BRANCH  11  18
ATOM     18  O   UNK d   1      25.962   5.523  -3.444  0.00  0.00    -0.390 OA
ATOM     19  H   UNK d   1      25.631   4.641  -3.717  0.00  0.00     0.210 HD
ENDBRANCH  11  18
BRANCH  12  20
ATOM     20  O   UNK d   1      23.329   4.644  -2.717  0.00  0.00    -0.390 OA
ATOM     21  H   UNK d   1      23.866   4.006  -2.212  0.00  0.00     0.210 HD
ENDBRANCH  12  20
BRANCH  13  22
ATOM     22  O   UNK d   1      21.861   6.517  -1.155  0.00  0.00    -0.388 OA
ATOM     23  H   UNK d   1      21.507   5.641  -1.402  0.00  0.00     0.210 HD
ENDBRANCH  13  22
ENDBRANCH   7   8
ENDBRANCH   1   7
BRANCH   3  24
ATOM     24  O   UNK d   1      19.537   9.422  -2.003  0.00  0.00    -0.353 OA
ATOM     25  C   UNK d   1      19.034   8.132  -2.332  0.00  0.00     0.210 C 
ENDBRANCH   3  24
BRANCH   4  26
ATOM     26  C   UNK d   1      22.341   9.941   2.948  0.00  0.00     0.090 A 
ATOM     27  O   UNK d   1      21.959  10.998   3.767  0.00  0.00    -0.309 OA
ATOM     28  C   UNK d   1      22.607  11.183   4.965  0.00  0.00     0.095 A 
ATOM     29  C   UNK d   1      23.655  10.373   5.408  0.00  0.00     0.081 A 
ATOM     30  C   UNK d   1      22.164  12.250   5.750  0.00  0.00     0.075 A 
ATOM     31  C   UNK d   1      24.077   9.263   4.532  0.00  0.00     0.190 A 
ATOM     32  C   UNK d   1      24.256  10.639   6.647  0.00  0.00     0.085 A 
ATOM     33  O   UNK d   1      24.992   8.489   4.778  0.00  0.00    -0.287 OA
ATOM     34  C   UNK d   1      23.332   9.099   3.273  0.00  0.00     0.094 A 
ATOM     35  C   UNK d   1      23.816  11.706   7.436  0.00  0.00     0.074 A 
ATOM     36  C   UNK d   1      22.771  12.502   6.976  0.00  0.00     0.071 A 
BRANCH  32  37
ATOM     37  O   UNK d   1      25.283   9.863   7.105  0.00  0.00    -0.360 OA
ATOM     38  H   UNK d   1      25.577  10.154   7.981  0.00  0.00     0.217 HD
ENDBRANCH  32  37
BRANCH  36  39
ATOM     39  O   UNK d   1      22.309  13.555   7.708  0.00  0.00    -0.361 OA
ATOM     40  H   UNK d   1      22.792  13.598   8.551  0.00  0.00     0.217 HD
ENDBRANCH  36  39
ENDBRANCH   4  26
TORSDOF 11
ENDMDL
MODEL 9
REMARK minimizedAffinity -8.16195488REMARK CNNscore 0.226049289REMARK CNNaffinity 4.57110405REMARK  11 active torsions:
REMARK  status: ('A' for Active; 'I' for Inactive)
REMARK    1  A    between atoms: O_2  and  C_17 
REMARK    2  A    between atoms: O_2  and  C_19 
REMARK    3  A    between atoms: O_3  and  C_13 
REMARK    4  A    between atoms: O_4  and  C_14 
REMARK    5  A    between atoms: O_5  and  C_15 
REMARK    6  A    between atoms: O_6  and  C_18 
REMARK    7  A    between atoms: O_8  and  C_21 
REMARK    8  A    between atoms: O_11  and  C_30 
REMARK    9  A    between atoms: O_12  and  C_33 
REMARK   10  A    between atoms: C_16  and  C_18 
REMARK   11  A    between atoms: C_22  and  C_25 
ROOT
ATOM      1  C   UNK d   1      25.301  -4.505  21.468  0.00  0.00     0.106 A 
ATOM      2  C   UNK d   1      25.203  -3.487  20.499  0.00  0.00     0.054 A 
ATOM      3  C   UNK d   1      25.139  -5.845  21.076  0.00  0.00     0.101 A 
ATOM      4  C   UNK d   1      24.891  -3.758  19.153  0.00  0.00     0.001 A 
ATOM      5  C   UNK d   1      24.853  -6.132  19.741  0.00  0.00     0.040 A 
ATOM      6  C   UNK d   1      24.722  -5.104  18.800  0.00  0.00     0.017 A 
ENDROOT
BRANCH   1   7
ATOM      7  O   UNK d   1      25.541  -4.288  22.807  0.00  0.00    -0.315 OA
BRANCH   7   8
ATOM      8  C   UNK d   1      24.482  -3.740  23.598  0.00  0.00     0.299 C 
ATOM      9  O   UNK d   1      24.833  -2.419  24.017  0.00  0.00    -0.340 OA
ATOM     10  C   UNK d   1      23.819  -1.757  24.760  0.00  0.00     0.253 C 
ATOM     11  C   UNK d   1      23.500  -2.532  26.041  0.00  0.00     0.189 C 
ATOM     12  C   UNK d   1      23.160  -3.984  25.701  0.00  0.00     0.183 C 
ATOM     13  C   UNK d   1      24.246  -4.633  24.836  0.00  0.00     0.205 C 
BRANCH  10  14
ATOM     14  C   UNK d   1      24.252  -0.326  25.126  0.00  0.00     0.172 C 
ATOM     15  O   UNK d   1      24.108   0.657  24.417  0.00  0.00    -0.648 OA
BRANCH  14  16
ATOM     16  O   UNK d   1      24.778  -0.227  26.376  0.00  0.00    -0.774 OA
ATOM     17  H   UNK d   1      24.919  -1.109  26.796  0.00  0.00     0.167 HD
ENDBRANCH  14  16
ENDBRANCH  10  14
BRANCH  11  18
ATOM     18  O   UNK d   1      22.368  -1.936  26.706  0.00  0.00    -0.390 OA
ATOM     19  H   UNK d   1      22.292  -2.406  27.564  0.00  0.00     0.210 HD
ENDBRANCH  11  18
BRANCH  12  20
ATOM     20  O   UNK d   1      22.988  -4.730  26.917  0.00  0.00    -0.390 OA
ATOM     21  H   UNK d   1      22.031  -4.754  27.108  0.00  0.00     0.210 HD
ENDBRANCH  12  20
BRANCH  13  22
ATOM     22  O   UNK d   1      23.779  -5.941  24.466  0.00  0.00    -0.388 OA
ATOM     23  H   UNK d   1      23.703  -6.439  25.302  0.00  0.00     0.210 HD
ENDBRANCH  13  22
ENDBRANCH   7   8
ENDBRANCH   1   7
BRANCH   3  24
ATOM     24  O   UNK d   1      25.270  -6.799  22.055  0.00  0.00    -0.353 OA
ATOM     25  C   UNK d   1      25.679  -8.098  21.645  0.00  0.00     0.210 C 
ENDBRANCH   3  24
BRANCH   4  26
ATOM     26  C   UNK d   1      24.733  -2.645  18.169  0.00  0.00     0.090 A 
ATOM     27  O   UNK d   1      24.851  -1.369  18.709  0.00  0.00    -0.309 OA
ATOM     28  C   UNK d   1      24.717  -0.278  17.883  0.00  0.00     0.095 A 
ATOM     29  C   UNK d   1      24.447  -0.375  16.516  0.00  0.00     0.081 A 
ATOM     30  C   UNK d   1      24.864   0.975  18.483  0.00  0.00     0.075 A 
ATOM     31  C   UNK d   1      24.301  -1.727  15.943  0.00  0.00     0.190 A 
ATOM     32  C   UNK d   1      24.327   0.796  15.752  0.00  0.00     0.085 A 
ATOM     33  O   UNK d   1      24.042  -1.964  14.771  0.00  0.00    -0.287 OA
ATOM     34  C   UNK d   1      24.478  -2.856  16.870  0.00  0.00     0.094 A 
ATOM     35  C   UNK d   1      24.474   2.051  16.349  0.00  0.00     0.074 A 
ATOM     36  C   UNK d   1      24.741   2.126  17.713  0.00  0.00     0.071 A 
BRANCH  32  37
ATOM     37  O   UNK d   1      24.063   0.731  14.414  0.00  0.00    -0.360 OA
ATOM     38  H   UNK d   1      24.033   1.616  14.021  0.00  0.00     0.217 HD
ENDBRANCH  32  37
BRANCH  36  39
ATOM     39  O   UNK d   1      24.890   3.328  18.340  0.00  0.00    -0.361 OA
ATOM     40  H   UNK d   1      24.815   4.043  17.686  0.00  0.00     0.217 HD
ENDBRANCH  36  39
ENDBRANCH   4  26
TORSDOF 11
ENDMDL
