REMARK  13 active torsions:
REMARK  status: ('A' for Active; 'I' for Inactive)
REMARK    1  A    between atoms: S_2  and  C_10 
REMARK    2  A    between atoms: S_2  and  C_13 
REMARK    3  A    between atoms: O_5  and  C_23 
REMARK    4  A    between atoms: C_7  and  C_10 
REMARK    5  A    between atoms: C_7  and  C_11 
REMARK    6  A    between atoms: C_11  and  C_12 
REMARK    7  A    between atoms: C_13  and  C_15 
REMARK    8  A    between atoms: C_13  and  C_14 
REMARK    9  A    between atoms: C_14  and  C_16 
REMARK   10  A    between atoms: C_16  and  C_19 
REMARK   11  A    between atoms: C_20  and  C_23 
REMARK   12  A    between atoms: C_21  and  C_28 
REMARK   13  A    between atoms: C_32  and  C_33 
ROOT
ATOM      1  C   LIG d   1      -0.856  17.384 -13.929  0.00  0.00     0.080 C 
ENDROOT
BRANCH   1   2
ATOM      2  S   LIG d   1      -1.161  16.083 -15.193  0.00  0.00    -0.159 SA
BRANCH   2   3
ATOM      3  C   LIG d   1      -0.915  17.087 -16.695  0.00  0.00     0.084 C 
BRANCH   3   4
ATOM      4  C   LIG d   1       0.295  16.589 -17.460  0.00  0.00    -0.022 A 
ATOM      5  C   LIG d   1       1.044  15.396 -16.889  0.00  0.00     0.011 A 
ATOM      6  C   LIG d   1       1.670  16.756 -16.830  0.00  0.00     0.011 A 
BRANCH   4   7
ATOM      7  C   LIG d   1       0.186  16.658 -18.982  0.00  0.00     0.123 C 
BRANCH   7   8
ATOM      8  C   LIG d   1      -0.914  17.613 -19.473  0.00  0.00     0.173 C 
ATOM      9  O   LIG d   1      -1.865  17.067 -20.106  0.00  0.00    -0.648 OA
ATOM     10  O   LIG d   1      -0.742  18.830 -19.182  0.00  0.00    -0.648 OA
ENDBRANCH   7   8
ENDBRANCH   4   7
ENDBRANCH   3   4
ENDBRANCH   2   3
ENDBRANCH   1   2
BRANCH   1  11
ATOM     11  C   LIG d   1       0.387  17.088 -13.100  0.00  0.00    -0.043 A 
ATOM     12  C   LIG d   1       0.698  17.829 -11.946  0.00  0.00     0.019 A 
ATOM     13  C   LIG d   1       1.856  17.573 -11.198  0.00  0.00    -0.036 A 
ATOM     14  C   LIG d   1       2.701  16.534 -11.598  0.00  0.00     0.011 A 
ATOM     15  C   LIG d   1       2.394  15.771 -12.726  0.00  0.00     0.001 A 
ATOM     16  C   LIG d   1       1.250  16.050 -13.476  0.00  0.00     0.008 A 
BRANCH  13  17
ATOM     17  C   LIG d   1       2.185  18.487 -10.095  0.00  0.00     0.014 C 
ATOM     18  C   LIG d   1       2.975  19.568 -10.196  0.00  0.00     0.032 C 
BRANCH  18  19
ATOM     19  C   LIG d   1       3.258  20.501  -9.097  0.00  0.00     0.057 A 
ATOM     20  N   LIG d   1       4.203  21.430  -9.382  0.00  0.00    -0.248 NA
ATOM     21  C   LIG d   1       4.518  22.340  -8.446  0.00  0.00     0.069 A 
ATOM     22  C   LIG d   1       3.916  22.354  -7.170  0.00  0.00    -0.007 A 
ATOM     23  C   LIG d   1       5.467  23.309  -8.736  0.00  0.00     0.056 A 
ATOM     24  C   LIG d   1       2.966  21.369  -6.886  0.00  0.00     0.016 A 
ATOM     25  C   LIG d   1       4.269  23.330  -6.224  0.00  0.00     0.015 A 
ATOM     26  C   LIG d   1       2.637  20.429  -7.857  0.00  0.00     0.032 A 
ATOM     27  C   LIG d   1       5.222  24.295  -6.539  0.00  0.00     0.025 A 
ATOM     28  C   LIG d   1       5.818  24.279  -7.797  0.00  0.00     0.036 A 
ATOM     29 CL   LIG d   1       6.998  25.466  -8.193  0.00  0.00    -0.084 Cl
ENDBRANCH  18  19
ENDBRANCH  13  17
ENDBRANCH   1  11
BRANCH   1  30
ATOM     30  C   LIG d   1      -0.768  18.751 -14.640  0.00  0.00     0.025 C 
BRANCH  30  31
ATOM     31  C   LIG d   1       0.691  19.171 -14.898  0.00  0.00     0.040 C 
BRANCH  31  32
ATOM     32  C   LIG d   1       0.948  20.634 -14.589  0.00  0.00    -0.049 A 
ATOM     33  C   LIG d   1       1.263  21.637 -15.543  0.00  0.00    -0.019 A 
ATOM     34  C   LIG d   1       1.374  22.967 -15.063  0.00  0.00     0.011 A 
ATOM     35  C   LIG d   1       1.238  23.296 -13.713  0.00  0.00     0.001 A 
ATOM     36  C   LIG d   1       0.978  22.301 -12.787  0.00  0.00     0.001 A 
ATOM     37  C   LIG d   1       0.831  20.990 -13.222  0.00  0.00     0.007 A 
BRANCH  33  38
ATOM     38  C   LIG d   1       1.489  21.386 -17.046  0.00  0.00     0.078 C 
ATOM     39  C   LIG d   1       1.101  22.589 -17.923  0.00  0.00     0.051 C 
ATOM     40  C   LIG d   1       2.903  20.886 -17.353  0.00  0.00     0.051 C 
BRANCH  38  41
ATOM     41  O   LIG d   1       0.628  20.318 -17.507  0.00  0.00    -0.386 OA
ATOM     42  H   LIG d   1       0.570  20.405 -18.474  0.00  0.00     0.211 HD
ENDBRANCH  38  41
ENDBRANCH  33  38
ENDBRANCH  31  32
ENDBRANCH  30  31
ENDBRANCH   1  30
TORSDOF 13
