MODEL 1
REMARK VINA RESULT:      -8.3      0.000      0.000
REMARK  11 active torsions:
REMARK  status: ('A' for Active; 'I' for Inactive)
REMARK    1  A    between atoms: O_2  and  C_17 
REMARK    2  A    between atoms: O_2  and  C_19 
REMARK    3  A    between atoms: O_3  and  C_13 
REMARK    4  A    between atoms: O_4  and  C_14 
REMARK    5  A    between atoms: O_5  and  C_15 
REMARK    6  A    between atoms: O_6  and  C_18 
REMARK    7  A    between atoms: O_8  and  C_21 
REMARK    8  A    between atoms: O_11  and  C_30 
REMARK    9  A    between atoms: O_12  and  C_33 
REMARK   10  A    between atoms: C_16  and  C_18 
REMARK   11  A    between atoms: C_22  and  C_25 
ROOT
ATOM      1  C   UNK d   1      10.734  18.629   3.360  0.00  0.00     0.106 A 
ATOM      2  C   UNK d   1      10.223  19.440   2.329  0.00  0.00     0.054 A 
ATOM      3  C   UNK d   1      11.036  19.207   4.605  0.00  0.00     0.101 A 
ATOM      4  C   UNK d   1      10.054  20.830   2.480  0.00  0.00     0.001 A 
ATOM      5  C   UNK d   1      10.852  20.579   4.779  0.00  0.00     0.040 A 
ATOM      6  C   UNK d   1      10.379  21.376   3.730  0.00  0.00     0.017 A 
ENDROOT
BRANCH   1   7
ATOM      7  O   UNK d   1      10.977  17.278   3.242  0.00  0.00    -0.315 OA
BRANCH   7   8
ATOM      8  C   UNK d   1       9.854  16.404   3.093  0.00  0.00     0.299 C 
ATOM      9  O   UNK d   1       9.905  15.386   4.096  0.00  0.00    -0.340 OA
ATOM     10  C   UNK d   1       8.796  14.496   4.076  0.00  0.00     0.253 C 
ATOM     11  C   UNK d   1       8.721  13.762   2.735  0.00  0.00     0.189 C 
ATOM     12  C   UNK d   1       8.716  14.772   1.586  0.00  0.00     0.183 C 
ATOM     13  C   UNK d   1       9.885  15.756   1.691  0.00  0.00     0.205 C 
BRANCH  10  14
ATOM     14  C   UNK d   1       8.898  13.467   5.215  0.00  0.00     0.172 C 
ATOM     15  O   UNK d   1       7.972  12.801   5.649  0.00  0.00    -0.648 OA
BRANCH  14  16
ATOM     16  O   UNK d   1      10.165  13.308   5.684  0.00  0.00    -0.774 OA
ATOM     17  H   UNK d   1      10.395  12.361   5.833  0.00  0.00     0.167 HD
ENDBRANCH  14  16
ENDBRANCH  10  14
BRANCH  11  18
ATOM     18  O   UNK d   1       7.511  12.981   2.670  0.00  0.00    -0.390 OA
ATOM     19  H   UNK d   1       7.422  12.563   3.553  0.00  0.00     0.210 HD
ENDBRANCH  11  18
BRANCH  12  20
ATOM     20  O   UNK d   1       8.774  14.069   0.334  0.00  0.00    -0.390 OA
ATOM     21  H   UNK d   1       8.467  13.158   0.500  0.00  0.00     0.210 HD
ENDBRANCH  12  20
BRANCH  13  22
ATOM     22  O   UNK d   1       9.722  16.734   0.651  0.00  0.00    -0.388 OA
ATOM     23  H   UNK d   1       8.994  17.314   0.946  0.00  0.00     0.210 HD
ENDBRANCH  13  22
ENDBRANCH   7   8
ENDBRANCH   1   7
BRANCH   3  24
ATOM     24  O   UNK d   1      11.507  18.366   5.583  0.00  0.00    -0.353 OA
ATOM     25  C   UNK d   1      12.492  18.886   6.468  0.00  0.00     0.210 C 
ENDBRANCH   3  24
BRANCH   4  26
ATOM     26  C   UNK d   1       9.569  21.667   1.341  0.00  0.00     0.090 A 
ATOM     27  O   UNK d   1       8.529  21.106   0.608  0.00  0.00    -0.309 OA
ATOM     28  C   UNK d   1       8.016  21.799  -0.463  0.00  0.00     0.095 A 
ATOM     29  C   UNK d   1       8.497  23.043  -0.878  0.00  0.00     0.081 A 
ATOM     30  C   UNK d   1       6.961  21.190  -1.147  0.00  0.00     0.075 A 
ATOM     31  C   UNK d   1       9.614  23.632  -0.115  0.00  0.00     0.190 A 
ATOM     32  C   UNK d   1       7.910  23.675  -1.984  0.00  0.00     0.085 A 
ATOM     33  O   UNK d   1      10.151  24.701  -0.376  0.00  0.00    -0.287 OA
ATOM     34  C   UNK d   1      10.106  22.856   1.035  0.00  0.00     0.094 A 
ATOM     35  C   UNK d   1       6.853  23.069  -2.670  0.00  0.00     0.074 A 
ATOM     36  C   UNK d   1       6.390  21.829  -2.242  0.00  0.00     0.071 A 
BRANCH  32  37
ATOM     37  O   UNK d   1       8.359  24.892  -2.411  0.00  0.00    -0.360 OA
ATOM     38  H   UNK d   1       8.439  25.514  -1.673  0.00  0.00     0.217 HD
ENDBRANCH  32  37
BRANCH  36  39
ATOM     39  O   UNK d   1       5.364  21.198  -2.880  0.00  0.00    -0.361 OA
ATOM     40  H   UNK d   1       5.382  21.428  -3.825  0.00  0.00     0.217 HD
ENDBRANCH  36  39
ENDBRANCH   4  26
TORSDOF 11
ENDMDL
MODEL 2
REMARK VINA RESULT:      -8.1      1.185      2.451
REMARK  11 active torsions:
REMARK  status: ('A' for Active; 'I' for Inactive)
REMARK    1  A    between atoms: O_2  and  C_17 
REMARK    2  A    between atoms: O_2  and  C_19 
REMARK    3  A    between atoms: O_3  and  C_13 
REMARK    4  A    between atoms: O_4  and  C_14 
REMARK    5  A    between atoms: O_5  and  C_15 
REMARK    6  A    between atoms: O_6  and  C_18 
REMARK    7  A    between atoms: O_8  and  C_21 
REMARK    8  A    between atoms: O_11  and  C_30 
REMARK    9  A    between atoms: O_12  and  C_33 
REMARK   10  A    between atoms: C_16  and  C_18 
REMARK   11  A    between atoms: C_22  and  C_25 
ROOT
ATOM      1  C   UNK d   1      10.526  19.465   4.157  0.00  0.00     0.106 A 
ATOM      2  C   UNK d   1       9.945  20.217   3.118  0.00  0.00     0.054 A 
ATOM      3  C   UNK d   1      11.782  19.843   4.662  0.00  0.00     0.101 A 
ATOM      4  C   UNK d   1      10.605  21.310   2.523  0.00  0.00     0.001 A 
ATOM      5  C   UNK d   1      12.438  20.938   4.098  0.00  0.00     0.040 A 
ATOM      6  C   UNK d   1      11.862  21.650   3.041  0.00  0.00     0.017 A 
ENDROOT
BRANCH   1   7
ATOM      7  O   UNK d   1       9.951  18.351   4.730  0.00  0.00    -0.315 OA
BRANCH   7   8
ATOM      8  C   UNK d   1      10.271  17.071   4.176  0.00  0.00     0.299 C 
ATOM      9  O   UNK d   1       9.298  16.722   3.187  0.00  0.00    -0.340 OA
ATOM     10  C   UNK d   1       9.559  15.490   2.527  0.00  0.00     0.253 C 
ATOM     11  C   UNK d   1       9.570  14.335   3.531  0.00  0.00     0.189 C 
ATOM     12  C   UNK d   1      10.549  14.639   4.666  0.00  0.00     0.183 C 
ATOM     13  C   UNK d   1      10.278  16.009   5.297  0.00  0.00     0.205 C 
BRANCH  10  14
ATOM     14  C   UNK d   1       8.500  15.214   1.445  0.00  0.00     0.172 C 
ATOM     15  O   UNK d   1       8.210  14.112   1.007  0.00  0.00    -0.648 OA
BRANCH  14  16
ATOM     16  O   UNK d   1       7.845  16.333   1.036  0.00  0.00    -0.774 OA
ATOM     17  H   UNK d   1       8.063  16.577   0.105  0.00  0.00     0.167 HD
ENDBRANCH  14  16
ENDBRANCH  10  14
BRANCH  11  18
ATOM     18  O   UNK d   1       9.985  13.120   2.876  0.00  0.00    -0.390 OA
ATOM     19  H   UNK d   1      10.546  13.407   2.124  0.00  0.00     0.210 HD
ENDBRANCH  11  18
BRANCH  12  20
ATOM     20  O   UNK d   1      10.457  13.609   5.664  0.00  0.00    -0.390 OA
ATOM     21  H   UNK d   1      11.354  13.472   6.020  0.00  0.00     0.210 HD
ENDBRANCH  12  20
BRANCH  13  22
ATOM     22  O   UNK d   1      11.319  16.257   6.257  0.00  0.00    -0.388 OA
ATOM     23  H   UNK d   1      11.061  17.076   6.720  0.00  0.00     0.210 HD
ENDBRANCH  13  22
ENDBRANCH   7   8
ENDBRANCH   1   7
BRANCH   3  24
ATOM     24  O   UNK d   1      12.290  19.091   5.692  0.00  0.00    -0.353 OA
ATOM     25  C   UNK d   1      13.624  19.366   6.101  0.00  0.00     0.210 C 
ENDBRANCH   3  24
BRANCH   4  26
ATOM     26  C   UNK d   1       9.983  22.044   1.379  0.00  0.00     0.090 A 
ATOM     27  O   UNK d   1       8.932  21.375   0.760  0.00  0.00    -0.309 OA
ATOM     28  C   UNK d   1       8.298  21.967  -0.305  0.00  0.00     0.095 A 
ATOM     29  C   UNK d   1       8.662  23.212  -0.825  0.00  0.00     0.081 A 
ATOM     30  C   UNK d   1       7.239  21.253  -0.871  0.00  0.00     0.075 A 
ATOM     31  C   UNK d   1       9.790  23.915  -0.184  0.00  0.00     0.190 A 
ATOM     32  C   UNK d   1       7.955  23.738  -1.917  0.00  0.00     0.085 A 
ATOM     33  O   UNK d   1      10.233  24.998  -0.544  0.00  0.00    -0.287 OA
ATOM     34  C   UNK d   1      10.415  23.244   0.967  0.00  0.00     0.094 A 
ATOM     35  C   UNK d   1       6.894  23.026  -2.485  0.00  0.00     0.074 A 
ATOM     36  C   UNK d   1       6.548  21.787  -1.954  0.00  0.00     0.071 A 
BRANCH  32  37
ATOM     37  O   UNK d   1       8.289  24.952  -2.444  0.00  0.00    -0.360 OA
ATOM     38  H   UNK d   1       9.245  25.104  -2.393  0.00  0.00     0.217 HD
ENDBRANCH  32  37
BRANCH  36  39
ATOM     39  O   UNK d   1       5.523  21.054  -2.475  0.00  0.00    -0.361 OA
ATOM     40  H   UNK d   1       5.742  20.109  -2.418  0.00  0.00     0.217 HD
ENDBRANCH  36  39
ENDBRANCH   4  26
TORSDOF 11
ENDMDL
MODEL 3
REMARK VINA RESULT:      -7.9      2.227      7.901
REMARK  11 active torsions:
REMARK  status: ('A' for Active; 'I' for Inactive)
REMARK    1  A    between atoms: O_2  and  C_17 
REMARK    2  A    between atoms: O_2  and  C_19 
REMARK    3  A    between atoms: O_3  and  C_13 
REMARK    4  A    between atoms: O_4  and  C_14 
REMARK    5  A    between atoms: O_5  and  C_15 
REMARK    6  A    between atoms: O_6  and  C_18 
REMARK    7  A    between atoms: O_8  and  C_21 
REMARK    8  A    between atoms: O_11  and  C_30 
REMARK    9  A    between atoms: O_12  and  C_33 
REMARK   10  A    between atoms: C_16  and  C_18 
REMARK   11  A    between atoms: C_22  and  C_25 
ROOT
ATOM      1  C   UNK d   1      10.206  20.302   0.476  0.00  0.00     0.106 A 
ATOM      2  C   UNK d   1      10.064  18.978   0.935  0.00  0.00     0.054 A 
ATOM      3  C   UNK d   1       9.113  20.940  -0.135  0.00  0.00     0.101 A 
ATOM      4  C   UNK d   1       8.875  18.245   0.754  0.00  0.00     0.001 A 
ATOM      5  C   UNK d   1       7.920  20.234  -0.300  0.00  0.00     0.040 A 
ATOM      6  C   UNK d   1       7.810  18.907   0.129  0.00  0.00     0.017 A 
ENDROOT
BRANCH   1   7
ATOM      7  O   UNK d   1      11.365  21.040   0.571  0.00  0.00    -0.315 OA
BRANCH   7   8
ATOM      8  C   UNK d   1      11.858  21.351   1.877  0.00  0.00     0.299 C 
ATOM      9  O   UNK d   1      12.112  20.139   2.593  0.00  0.00    -0.340 OA
ATOM     10  C   UNK d   1      12.666  20.335   3.887  0.00  0.00     0.253 C 
ATOM     11  C   UNK d   1      11.709  21.147   4.763  0.00  0.00     0.189 C 
ATOM     12  C   UNK d   1      11.332  22.449   4.056  0.00  0.00     0.183 C 
ATOM     13  C   UNK d   1      10.811  22.194   2.638  0.00  0.00     0.205 C 
BRANCH  10  14
ATOM     14  C   UNK d   1      12.959  18.986   4.568  0.00  0.00     0.172 C 
ATOM     15  O   UNK d   1      12.452  18.596   5.607  0.00  0.00    -0.648 OA
BRANCH  14  16
ATOM     16  O   UNK d   1      13.821  18.205   3.864  0.00  0.00    -0.774 OA
ATOM     17  H   UNK d   1      14.011  18.568   2.966  0.00  0.00     0.167 HD
ENDBRANCH  14  16
ENDBRANCH  10  14
BRANCH  11  18
ATOM     18  O   UNK d   1      12.344  21.468   6.016  0.00  0.00    -0.390 OA
ATOM     19  H   UNK d   1      13.160  20.924   6.042  0.00  0.00     0.210 HD
ENDBRANCH  11  18
BRANCH  12  20
ATOM     20  O   UNK d   1      10.337  23.140   4.830  0.00  0.00    -0.390 OA
ATOM     21  H   UNK d   1       9.626  22.501   5.023  0.00  0.00     0.210 HD
ENDBRANCH  12  20
BRANCH  13  22
ATOM     22  O   UNK d   1      10.607  23.474   2.016  0.00  0.00    -0.388 OA
ATOM     23  H   UNK d   1      10.671  24.130   2.737  0.00  0.00     0.210 HD
ENDBRANCH  13  22
ENDBRANCH   7   8
ENDBRANCH   1   7
BRANCH   3  24
ATOM     24  O   UNK d   1       9.298  22.238  -0.541  0.00  0.00    -0.353 OA
ATOM     25  C   UNK d   1       8.428  22.734  -1.552  0.00  0.00     0.210 C 
ENDBRANCH   3  24
BRANCH   4  26
ATOM     26  C   UNK d   1       8.784  16.821   1.199  0.00  0.00     0.090 A 
ATOM     27  O   UNK d   1       7.559  16.210   0.949  0.00  0.00    -0.309 OA
ATOM     28  C   UNK d   1       7.376  14.901   1.325  0.00  0.00     0.095 A 
ATOM     29  C   UNK d   1       8.353  14.140   1.970  0.00  0.00     0.081 A 
ATOM     30  C   UNK d   1       6.132  14.340   1.029  0.00  0.00     0.075 A 
ATOM     31  C   UNK d   1       9.647  14.791   2.256  0.00  0.00     0.190 A 
ATOM     32  C   UNK d   1       8.075  12.809   2.317  0.00  0.00     0.085 A 
ATOM     33  O   UNK d   1      10.584  14.257   2.834  0.00  0.00    -0.287 OA
ATOM     34  C   UNK d   1       9.794  16.186   1.809  0.00  0.00     0.094 A 
ATOM     35  C   UNK d   1       6.831  12.245   2.021  0.00  0.00     0.074 A 
ATOM     36  C   UNK d   1       5.869  13.020   1.380  0.00  0.00     0.071 A 
BRANCH  32  37
ATOM     37  O   UNK d   1       9.012  12.042   2.948  0.00  0.00    -0.360 OA
ATOM     38  H   UNK d   1       9.848  12.522   3.046  0.00  0.00     0.217 HD
ENDBRANCH  32  37
BRANCH  36  39
ATOM     39  O   UNK d   1       4.641  12.514   1.073  0.00  0.00    -0.361 OA
ATOM     40  H   UNK d   1       4.748  11.726   0.514  0.00  0.00     0.217 HD
ENDBRANCH  36  39
ENDBRANCH   4  26
TORSDOF 11
ENDMDL
MODEL 4
REMARK VINA RESULT:      -7.6     27.176     32.497
REMARK  11 active torsions:
REMARK  status: ('A' for Active; 'I' for Inactive)
REMARK    1  A    between atoms: O_2  and  C_17 
REMARK    2  A    between atoms: O_2  and  C_19 
REMARK    3  A    between atoms: O_3  and  C_13 
REMARK    4  A    between atoms: O_4  and  C_14 
REMARK    5  A    between atoms: O_5  and  C_15 
REMARK    6  A    between atoms: O_6  and  C_18 
REMARK    7  A    between atoms: O_8  and  C_21 
REMARK    8  A    between atoms: O_11  and  C_30 
REMARK    9  A    between atoms: O_12  and  C_33 
REMARK   10  A    between atoms: C_16  and  C_18 
REMARK   11  A    between atoms: C_22  and  C_25 
ROOT
ATOM      1  C   UNK d   1      26.084  -4.420  20.687  0.00  0.00     0.106 A 
ATOM      2  C   UNK d   1      25.933  -3.410  19.718  0.00  0.00     0.054 A 
ATOM      3  C   UNK d   1      25.997  -5.768  20.297  0.00  0.00     0.101 A 
ATOM      4  C   UNK d   1      25.641  -3.700  18.371  0.00  0.00     0.001 A 
ATOM      5  C   UNK d   1      25.730  -6.071  18.961  0.00  0.00     0.040 A 
ATOM      6  C   UNK d   1      25.546  -5.053  18.019  0.00  0.00     0.017 A 
ENDROOT
BRANCH   1   7
ATOM      7  O   UNK d   1      26.307  -4.189  22.027  0.00  0.00    -0.315 OA
BRANCH   7   8
ATOM      8  C   UNK d   1      25.175  -3.920  22.859  0.00  0.00     0.299 C 
ATOM      9  O   UNK d   1      24.664  -2.618  22.564  0.00  0.00    -0.340 OA
ATOM     10  C   UNK d   1      23.495  -2.274  23.295  0.00  0.00     0.253 C 
ATOM     11  C   UNK d   1      23.781  -2.282  24.799  0.00  0.00     0.189 C 
ATOM     12  C   UNK d   1      24.384  -3.625  25.209  0.00  0.00     0.183 C 
ATOM     13  C   UNK d   1      25.596  -3.990  24.344  0.00  0.00     0.205 C 
BRANCH  10  14
ATOM     14  C   UNK d   1      22.979  -0.884  22.882  0.00  0.00     0.172 C 
ATOM     15  O   UNK d   1      23.674   0.105  22.714  0.00  0.00    -0.648 OA
BRANCH  14  16
ATOM     16  O   UNK d   1      21.638  -0.854  22.657  0.00  0.00    -0.774 OA
ATOM     17  H   UNK d   1      21.123  -0.654  23.475  0.00  0.00     0.167 HD
ENDBRANCH  14  16
ENDBRANCH  10  14
BRANCH  11  18
ATOM     18  O   UNK d   1      22.555  -2.082  25.532  0.00  0.00    -0.390 OA
ATOM     19  H   UNK d   1      22.735  -2.416  26.437  0.00  0.00     0.210 HD
ENDBRANCH  11  18
BRANCH  12  20
ATOM     20  O   UNK d   1      24.765  -3.574  26.594  0.00  0.00    -0.390 OA
ATOM     21  H   UNK d   1      23.951  -3.433  27.111  0.00  0.00     0.210 HD
ENDBRANCH  12  20
BRANCH  13  22
ATOM     22  O   UNK d   1      26.010  -5.314  24.717  0.00  0.00    -0.388 OA
ATOM     23  H   UNK d   1      26.324  -5.734  23.893  0.00  0.00     0.210 HD
ENDBRANCH  13  22
ENDBRANCH   7   8
ENDBRANCH   1   7
BRANCH   3  24
ATOM     24  O   UNK d   1      26.177  -6.712  21.277  0.00  0.00    -0.353 OA
ATOM     25  C   UNK d   1      26.801  -7.932  20.897  0.00  0.00     0.210 C 
ENDBRANCH   3  24
BRANCH   4  26
ATOM     26  C   UNK d   1      25.425  -2.598  17.384  0.00  0.00     0.090 A 
ATOM     27  O   UNK d   1      25.577  -1.315  17.902  0.00  0.00    -0.309 OA
ATOM     28  C   UNK d   1      25.395  -0.234  17.073  0.00  0.00     0.095 A 
ATOM     29  C   UNK d   1      25.042  -0.347  15.726  0.00  0.00     0.081 A 
ATOM     30  C   UNK d   1      25.579   1.025  17.647  0.00  0.00     0.075 A 
ATOM     31  C   UNK d   1      24.860  -1.705  15.179  0.00  0.00     0.190 A 
ATOM     32  C   UNK d   1      24.878   0.815  14.956  0.00  0.00     0.085 A 
ATOM     33  O   UNK d   1      24.530  -1.955  14.027  0.00  0.00    -0.287 OA
ATOM     34  C   UNK d   1      25.091  -2.824  16.106  0.00  0.00     0.094 A 
ATOM     35  C   UNK d   1      25.063   2.077  15.528  0.00  0.00     0.074 A 
ATOM     36  C   UNK d   1      25.412   2.168  16.873  0.00  0.00     0.071 A 
BRANCH  32  37
ATOM     37  O   UNK d   1      24.534   0.735  13.637  0.00  0.00    -0.360 OA
ATOM     38  H   UNK d   1      25.119   0.129  13.160  0.00  0.00     0.217 HD
ENDBRANCH  32  37
BRANCH  36  39
ATOM     39  O   UNK d   1      25.601   3.376  17.475  0.00  0.00    -0.361 OA
ATOM     40  H   UNK d   1      25.638   4.071  16.797  0.00  0.00     0.217 HD
ENDBRANCH  36  39
ENDBRANCH   4  26
TORSDOF 11
ENDMDL
MODEL 5
REMARK VINA RESULT:      -7.6     18.421     22.000
REMARK  11 active torsions:
REMARK  status: ('A' for Active; 'I' for Inactive)
REMARK    1  A    between atoms: O_2  and  C_17 
REMARK    2  A    between atoms: O_2  and  C_19 
REMARK    3  A    between atoms: O_3  and  C_13 
REMARK    4  A    between atoms: O_4  and  C_14 
REMARK    5  A    between atoms: O_5  and  C_15 
REMARK    6  A    between atoms: O_6  and  C_18 
REMARK    7  A    between atoms: O_8  and  C_21 
REMARK    8  A    between atoms: O_11  and  C_30 
REMARK    9  A    between atoms: O_12  and  C_33 
REMARK   10  A    between atoms: C_16  and  C_18 
REMARK   11  A    between atoms: C_22  and  C_25 
ROOT
ATOM      1  C   UNK d   1      19.257  -1.278  -4.167  0.00  0.00     0.106 A 
ATOM      2  C   UNK d   1      19.487   0.105  -4.306  0.00  0.00     0.054 A 
ATOM      3  C   UNK d   1      19.640  -1.923  -2.979  0.00  0.00     0.101 A 
ATOM      4  C   UNK d   1      20.140   0.860  -3.313  0.00  0.00     0.001 A 
ATOM      5  C   UNK d   1      20.268  -1.183  -1.976  0.00  0.00     0.040 A 
ATOM      6  C   UNK d   1      20.521   0.182  -2.148  0.00  0.00     0.017 A 
ENDROOT
BRANCH   1   7
ATOM      7  O   UNK d   1      18.681  -2.074  -5.133  0.00  0.00    -0.315 OA
BRANCH   7   8
ATOM      8  C   UNK d   1      17.264  -2.269  -5.083  0.00  0.00     0.299 C 
ATOM      9  O   UNK d   1      16.974  -3.669  -5.118  0.00  0.00    -0.340 OA
ATOM     10  C   UNK d   1      15.590  -3.977  -5.011  0.00  0.00     0.253 C 
ATOM     11  C   UNK d   1      14.811  -3.357  -6.173  0.00  0.00     0.189 C 
ATOM     12  C   UNK d   1      15.099  -1.857  -6.254  0.00  0.00     0.183 C 
ATOM     13  C   UNK d   1      16.603  -1.570  -6.292  0.00  0.00     0.205 C 
BRANCH  10  14
ATOM     14  C   UNK d   1      15.366  -5.500  -5.003  0.00  0.00     0.172 C 
ATOM     15  O   UNK d   1      14.424  -6.076  -5.520  0.00  0.00    -0.648 OA
BRANCH  14  16
ATOM     16  O   UNK d   1      16.370  -6.187  -4.395  0.00  0.00    -0.774 OA
ATOM     17  H   UNK d   1      17.220  -6.129  -4.893  0.00  0.00     0.167 HD
ENDBRANCH  14  16
ENDBRANCH  10  14
BRANCH  11  18
ATOM     18  O   UNK d   1      13.396  -3.546  -5.971  0.00  0.00    -0.390 OA
ATOM     19  H   UNK d   1      12.959  -3.015  -6.671  0.00  0.00     0.210 HD
ENDBRANCH  11  18
BRANCH  12  20
ATOM     20  O   UNK d   1      14.464  -1.313  -7.423  0.00  0.00    -0.390 OA
ATOM     21  H   UNK d   1      14.207  -2.065  -7.988  0.00  0.00     0.210 HD
ENDBRANCH  12  20
BRANCH  13  22
ATOM     22  O   UNK d   1      16.772  -0.144  -6.238  0.00  0.00    -0.388 OA
ATOM     23  H   UNK d   1      16.536   0.115  -5.327  0.00  0.00     0.210 HD
ENDBRANCH  13  22
ENDBRANCH   7   8
ENDBRANCH   1   7
BRANCH   3  24
ATOM     24  O   UNK d   1      19.371  -3.266  -2.887  0.00  0.00    -0.353 OA
ATOM     25  C   UNK d   1      20.456  -4.126  -2.561  0.00  0.00     0.210 C 
ENDBRANCH   3  24
BRANCH   4  26
ATOM     26  C   UNK d   1      20.422   2.313  -3.524  0.00  0.00     0.090 A 
ATOM     27  O   UNK d   1      19.292   3.123  -3.581  0.00  0.00    -0.309 OA
ATOM     28  C   UNK d   1      19.448   4.475  -3.776  0.00  0.00     0.095 A 
ATOM     29  C   UNK d   1      20.689   5.091  -3.942  0.00  0.00     0.081 A 
ATOM     30  C   UNK d   1      18.277   5.235  -3.805  0.00  0.00     0.075 A 
ATOM     31  C   UNK d   1      21.889   4.233  -3.904  0.00  0.00     0.190 A 
ATOM     32  C   UNK d   1      20.750   6.480  -4.136  0.00  0.00     0.085 A 
ATOM     33  O   UNK d   1      23.037   4.629  -4.057  0.00  0.00    -0.287 OA
ATOM     34  C   UNK d   1      21.663   2.798  -3.668  0.00  0.00     0.094 A 
ATOM     35  C   UNK d   1      19.580   7.244  -4.165  0.00  0.00     0.074 A 
ATOM     36  C   UNK d   1      18.352   6.610  -3.999  0.00  0.00     0.071 A 
BRANCH  32  37
ATOM     37  O   UNK d   1      21.950   7.109  -4.302  0.00  0.00    -0.360 OA
ATOM     38  H   UNK d   1      22.083   7.371  -5.225  0.00  0.00     0.217 HD
ENDBRANCH  32  37
BRANCH  36  39
ATOM     39  O   UNK d   1      17.184   7.313  -4.022  0.00  0.00    -0.361 OA
ATOM     40  H   UNK d   1      17.047   7.681  -4.911  0.00  0.00     0.217 HD
ENDBRANCH  36  39
ENDBRANCH   4  26
TORSDOF 11
ENDMDL
MODEL 6
REMARK VINA RESULT:      -7.5      2.328      2.806
REMARK  11 active torsions:
REMARK  status: ('A' for Active; 'I' for Inactive)
REMARK    1  A    between atoms: O_2  and  C_17 
REMARK    2  A    between atoms: O_2  and  C_19 
REMARK    3  A    between atoms: O_3  and  C_13 
REMARK    4  A    between atoms: O_4  and  C_14 
REMARK    5  A    between atoms: O_5  and  C_15 
REMARK    6  A    between atoms: O_6  and  C_18 
REMARK    7  A    between atoms: O_8  and  C_21 
REMARK    8  A    between atoms: O_11  and  C_30 
REMARK    9  A    between atoms: O_12  and  C_33 
REMARK   10  A    between atoms: C_16  and  C_18 
REMARK   11  A    between atoms: C_22  and  C_25 
ROOT
ATOM      1  C   UNK d   1      10.619  20.289   1.310  0.00  0.00     0.106 A 
ATOM      2  C   UNK d   1       9.636  21.239   0.971  0.00  0.00     0.054 A 
ATOM      3  C   UNK d   1      11.732  20.691   2.067  0.00  0.00     0.101 A 
ATOM      4  C   UNK d   1       9.755  22.599   1.316  0.00  0.00     0.001 A 
ATOM      5  C   UNK d   1      11.853  22.031   2.437  0.00  0.00     0.040 A 
ATOM      6  C   UNK d   1      10.885  22.968   2.058  0.00  0.00     0.017 A 
ENDROOT
BRANCH   1   7
ATOM      7  O   UNK d   1      10.581  18.961   0.942  0.00  0.00    -0.315 OA
BRANCH   7   8
ATOM      8  C   UNK d   1       9.757  18.076   1.707  0.00  0.00     0.299 C 
ATOM      9  O   UNK d   1      10.583  17.155   2.424  0.00  0.00    -0.340 OA
ATOM     10  C   UNK d   1       9.863  16.266   3.268  0.00  0.00     0.253 C 
ATOM     11  C   UNK d   1       8.896  15.411   2.446  0.00  0.00     0.189 C 
ATOM     12  C   UNK d   1       7.996  16.310   1.596  0.00  0.00     0.183 C 
ATOM     13  C   UNK d   1       8.813  17.302   0.761  0.00  0.00     0.205 C 
BRANCH  10  14
ATOM     14  C   UNK d   1      10.824  15.347   4.042  0.00  0.00     0.172 C 
ATOM     15  O   UNK d   1      10.549  14.740   5.065  0.00  0.00    -0.648 OA
BRANCH  14  16
ATOM     16  O   UNK d   1      12.038  15.212   3.444  0.00  0.00    -0.774 OA
ATOM     17  H   UNK d   1      12.785  15.365   4.071  0.00  0.00     0.167 HD
ENDBRANCH  14  16
ENDBRANCH  10  14
BRANCH  11  18
ATOM     18  O   UNK d   1       8.066  14.626   3.326  0.00  0.00    -0.390 OA
ATOM     19  H   UNK d   1       7.289  15.190   3.524  0.00  0.00     0.210 HD
ENDBRANCH  11  18
BRANCH  12  20
ATOM     20  O   UNK d   1       7.183  15.495   0.737  0.00  0.00    -0.390 OA
ATOM     21  H   UNK d   1       7.714  14.715   0.492  0.00  0.00     0.210 HD
ENDBRANCH  12  20
BRANCH  13  22
ATOM     22  O   UNK d   1       7.885  18.179   0.102  0.00  0.00    -0.388 OA
ATOM     23  H   UNK d   1       8.383  18.997  -0.086  0.00  0.00     0.210 HD
ENDBRANCH  13  22
ENDBRANCH   7   8
ENDBRANCH   1   7
BRANCH   3  24
ATOM     24  O   UNK d   1      12.647  19.720   2.391  0.00  0.00    -0.353 OA
ATOM     25  C   UNK d   1      13.022  19.611   3.759  0.00  0.00     0.210 C 
ENDBRANCH   3  24
BRANCH   4  26
ATOM     26  C   UNK d   1       8.722  23.588   0.883  0.00  0.00     0.090 A 
ATOM     27  O   UNK d   1       7.523  23.027   0.453  0.00  0.00    -0.309 OA
ATOM     28  C   UNK d   1       6.511  23.856   0.031  0.00  0.00     0.095 A 
ATOM     29  C   UNK d   1       6.622  25.248  -0.011  0.00  0.00     0.081 A 
ATOM     30  C   UNK d   1       5.328  23.233  -0.371  0.00  0.00     0.075 A 
ATOM     31  C   UNK d   1       7.898  25.845   0.425  0.00  0.00     0.190 A 
ATOM     32  C   UNK d   1       5.534  26.013  -0.458  0.00  0.00     0.085 A 
ATOM     33  O   UNK d   1       8.146  27.044   0.420  0.00  0.00    -0.287 OA
ATOM     34  C   UNK d   1       8.937  24.911   0.889  0.00  0.00     0.094 A 
ATOM     35  C   UNK d   1       4.347  25.393  -0.861  0.00  0.00     0.074 A 
ATOM     36  C   UNK d   1       4.258  24.005  -0.813  0.00  0.00     0.071 A 
BRANCH  32  37
ATOM     37  O   UNK d   1       5.613  27.375  -0.510  0.00  0.00    -0.360 OA
ATOM     38  H   UNK d   1       6.468  27.662  -0.864  0.00  0.00     0.217 HD
ENDBRANCH  32  37
BRANCH  36  39
ATOM     39  O   UNK d   1       3.123  23.355  -1.197  0.00  0.00    -0.361 OA
ATOM     40  H   UNK d   1       2.718  22.930  -0.422  0.00  0.00     0.217 HD
ENDBRANCH  36  39
ENDBRANCH   4  26
TORSDOF 11
ENDMDL
MODEL 7
REMARK VINA RESULT:      -7.4      2.543      6.881
REMARK  11 active torsions:
REMARK  status: ('A' for Active; 'I' for Inactive)
REMARK    1  A    between atoms: O_2  and  C_17 
REMARK    2  A    between atoms: O_2  and  C_19 
REMARK    3  A    between atoms: O_3  and  C_13 
REMARK    4  A    between atoms: O_4  and  C_14 
REMARK    5  A    between atoms: O_5  and  C_15 
REMARK    6  A    between atoms: O_6  and  C_18 
REMARK    7  A    between atoms: O_8  and  C_21 
REMARK    8  A    between atoms: O_11  and  C_30 
REMARK    9  A    between atoms: O_12  and  C_33 
REMARK   10  A    between atoms: C_16  and  C_18 
REMARK   11  A    between atoms: C_22  and  C_25 
ROOT
ATOM      1  C   UNK d   1       9.365  19.353   2.241  0.00  0.00     0.106 A 
ATOM      2  C   UNK d   1      10.194  19.693   3.327  0.00  0.00     0.054 A 
ATOM      3  C   UNK d   1       9.659  19.864   0.965  0.00  0.00     0.101 A 
ATOM      4  C   UNK d   1      11.283  20.576   3.194  0.00  0.00     0.001 A 
ATOM      5  C   UNK d   1      10.748  20.723   0.812  0.00  0.00     0.040 A 
ATOM      6  C   UNK d   1      11.539  21.078   1.911  0.00  0.00     0.017 A 
ENDROOT
BRANCH   1   7
ATOM      7  O   UNK d   1       8.252  18.546   2.331  0.00  0.00    -0.315 OA
BRANCH   7   8
ATOM      8  C   UNK d   1       8.453  17.151   2.580  0.00  0.00     0.299 C 
ATOM      9  O   UNK d   1       9.695  16.963   3.264  0.00  0.00    -0.340 OA
ATOM     10  C   UNK d   1       9.964  15.612   3.616  0.00  0.00     0.253 C 
ATOM     11  C   UNK d   1      10.037  14.735   2.364  0.00  0.00     0.189 C 
ATOM     12  C   UNK d   1       8.767  14.908   1.530  0.00  0.00     0.183 C 
ATOM     13  C   UNK d   1       8.476  16.384   1.239  0.00  0.00     0.205 C 
BRANCH  10  14
ATOM     14  C   UNK d   1      11.287  15.501   4.394  0.00  0.00     0.172 C 
ATOM     15  O   UNK d   1      11.392  15.490   5.610  0.00  0.00    -0.648 OA
BRANCH  14  16
ATOM     16  O   UNK d   1      12.373  15.355   3.588  0.00  0.00    -0.774 OA
ATOM     17  H   UNK d   1      12.402  16.031   2.870  0.00  0.00     0.167 HD
ENDBRANCH  14  16
ENDBRANCH  10  14
BRANCH  11  18
ATOM     18  O   UNK d   1      10.157  13.349   2.742  0.00  0.00    -0.390 OA
ATOM     19  H   UNK d   1       9.446  13.196   3.400  0.00  0.00     0.210 HD
ENDBRANCH  11  18
BRANCH  12  20
ATOM     20  O   UNK d   1       8.903  14.180   0.298  0.00  0.00    -0.390 OA
ATOM     21  H   UNK d   1       9.395  13.363   0.500  0.00  0.00     0.210 HD
ENDBRANCH  12  20
BRANCH  13  22
ATOM     22  O   UNK d   1       7.207  16.451   0.568  0.00  0.00    -0.388 OA
ATOM     23  H   UNK d   1       6.579  15.975   1.144  0.00  0.00     0.210 HD
ENDBRANCH  13  22
ENDBRANCH   7   8
ENDBRANCH   1   7
BRANCH   3  24
ATOM     24  O   UNK d   1       8.833  19.482  -0.063  0.00  0.00    -0.353 OA
ATOM     25  C   UNK d   1       8.020  20.489  -0.653  0.00  0.00     0.210 C 
ENDBRANCH   3  24
BRANCH   4  26
ATOM     26  C   UNK d   1      12.101  20.961   4.383  0.00  0.00     0.090 A 
ATOM     27  O   UNK d   1      12.478  19.899   5.200  0.00  0.00    -0.309 OA
ATOM     28  C   UNK d   1      13.230  20.153   6.322  0.00  0.00     0.095 A 
ATOM     29  C   UNK d   1      13.629  21.434   6.709  0.00  0.00     0.081 A 
ATOM     30  C   UNK d   1      13.590  19.044   7.090  0.00  0.00     0.075 A 
ATOM     31  C   UNK d   1      13.215  22.565   5.857  0.00  0.00     0.190 A 
ATOM     32  C   UNK d   1      14.397  21.596   7.873  0.00  0.00     0.085 A 
ATOM     33  O   UNK d   1      13.471  23.740   6.083  0.00  0.00    -0.287 OA
ATOM     34  C   UNK d   1      12.431  22.231   4.656  0.00  0.00     0.094 A 
ATOM     35  C   UNK d   1      14.760  20.487   8.643  0.00  0.00     0.074 A 
ATOM     36  C   UNK d   1      14.350  19.219   8.241  0.00  0.00     0.071 A 
BRANCH  32  37
ATOM     37  O   UNK d   1      14.801  22.837   8.274  0.00  0.00    -0.360 OA
ATOM     38  H   UNK d   1      15.077  22.831   9.203  0.00  0.00     0.217 HD
ENDBRANCH  32  37
BRANCH  36  39
ATOM     39  O   UNK d   1      14.678  18.109   8.961  0.00  0.00    -0.361 OA
ATOM     40  H   UNK d   1      15.484  17.712   8.590  0.00  0.00     0.217 HD
ENDBRANCH  36  39
ENDBRANCH   4  26
TORSDOF 11
ENDMDL
MODEL 8
REMARK VINA RESULT:      -7.4      1.888      4.676
REMARK  11 active torsions:
REMARK  status: ('A' for Active; 'I' for Inactive)
REMARK    1  A    between atoms: O_2  and  C_17 
REMARK    2  A    between atoms: O_2  and  C_19 
REMARK    3  A    between atoms: O_3  and  C_13 
REMARK    4  A    between atoms: O_4  and  C_14 
REMARK    5  A    between atoms: O_5  and  C_15 
REMARK    6  A    between atoms: O_6  and  C_18 
REMARK    7  A    between atoms: O_8  and  C_21 
REMARK    8  A    between atoms: O_11  and  C_30 
REMARK    9  A    between atoms: O_12  and  C_33 
REMARK   10  A    between atoms: C_16  and  C_18 
REMARK   11  A    between atoms: C_22  and  C_25 
ROOT
ATOM      1  C   UNK d   1       9.830  16.935   2.698  0.00  0.00     0.106 A 
ATOM      2  C   UNK d   1       9.984  18.215   2.131  0.00  0.00     0.054 A 
ATOM      3  C   UNK d   1       8.732  16.144   2.321  0.00  0.00     0.101 A 
ATOM      4  C   UNK d   1       9.043  18.758   1.234  0.00  0.00     0.001 A 
ATOM      5  C   UNK d   1       7.802  16.658   1.416  0.00  0.00     0.040 A 
ATOM      6  C   UNK d   1       7.953  17.947   0.892  0.00  0.00     0.017 A 
ENDROOT
BRANCH   1   7
ATOM      7  O   UNK d   1      10.687  16.385   3.626  0.00  0.00    -0.315 OA
BRANCH   7   8
ATOM      8  C   UNK d   1      10.671  16.918   4.953  0.00  0.00     0.299 C 
ATOM      9  O   UNK d   1      11.801  17.774   5.138  0.00  0.00    -0.340 OA
ATOM     10  C   UNK d   1      11.847  18.407   6.410  0.00  0.00     0.253 C 
ATOM     11  C   UNK d   1      11.924  17.364   7.526  0.00  0.00     0.189 C 
ATOM     12  C   UNK d   1      10.778  16.362   7.385  0.00  0.00     0.183 C 
ATOM     13  C   UNK d   1      10.722  15.761   5.976  0.00  0.00     0.205 C 
BRANCH  10  14
ATOM     14  C   UNK d   1      13.060  19.350   6.509  0.00  0.00     0.172 C 
ATOM     15  O   UNK d   1      13.053  20.539   6.233  0.00  0.00    -0.648 OA
BRANCH  14  16
ATOM     16  O   UNK d   1      14.173  18.744   7.000  0.00  0.00    -0.774 OA
ATOM     17  H   UNK d   1      14.526  19.198   7.802  0.00  0.00     0.167 HD
ENDBRANCH  14  16
ENDBRANCH  10  14
BRANCH  11  18
ATOM     18  O   UNK d   1      11.816  18.011   8.810  0.00  0.00    -0.390 OA
ATOM     19  H   UNK d   1      10.939  17.749   9.162  0.00  0.00     0.210 HD
ENDBRANCH  11  18
BRANCH  12  20
ATOM     20  O   UNK d   1      10.935  15.317   8.360  0.00  0.00    -0.390 OA
ATOM     21  H   UNK d   1      11.768  14.855   8.154  0.00  0.00     0.210 HD
ENDBRANCH  12  20
BRANCH  13  22
ATOM     22  O   UNK d   1       9.546  14.937   5.905  0.00  0.00    -0.388 OA
ATOM     23  H   UNK d   1       8.816  15.490   6.242  0.00  0.00     0.210 HD
ENDBRANCH  13  22
ENDBRANCH   7   8
ENDBRANCH   1   7
BRANCH   3  24
ATOM     24  O   UNK d   1       8.643  14.895   2.885  0.00  0.00    -0.353 OA
ATOM     25  C   UNK d   1       7.339  14.397   3.159  0.00  0.00     0.210 C 
ENDBRANCH   3  24
BRANCH   4  26
ATOM     26  C   UNK d   1       9.210  20.145   0.703  0.00  0.00     0.090 A 
ATOM     27  O   UNK d   1       8.317  20.492  -0.306  0.00  0.00    -0.309 OA
ATOM     28  C   UNK d   1       8.393  21.746  -0.863  0.00  0.00     0.095 A 
ATOM     29  C   UNK d   1       9.339  22.702  -0.485  0.00  0.00     0.081 A 
ATOM     30  C   UNK d   1       7.458  22.040  -1.858  0.00  0.00     0.075 A 
ATOM     31  C   UNK d   1      10.300  22.330   0.571  0.00  0.00     0.190 A 
ATOM     32  C   UNK d   1       9.340  23.958  -1.111  0.00  0.00     0.085 A 
ATOM     33  O   UNK d   1      11.196  23.054   0.986  0.00  0.00    -0.287 OA
ATOM     34  C   UNK d   1      10.156  20.983   1.146  0.00  0.00     0.094 A 
ATOM     35  C   UNK d   1       8.404  24.255  -2.106  0.00  0.00     0.074 A 
ATOM     36  C   UNK d   1       7.472  23.288  -2.471  0.00  0.00     0.071 A 
BRANCH  32  37
ATOM     37  O   UNK d   1      10.252  24.911  -0.760  0.00  0.00    -0.360 OA
ATOM     38  H   UNK d   1      10.897  25.055  -1.469  0.00  0.00     0.217 HD
ENDBRANCH  32  37
BRANCH  36  39
ATOM     39  O   UNK d   1       6.542  23.531  -3.438  0.00  0.00    -0.361 OA
ATOM     40  H   UNK d   1       6.555  22.806  -4.086  0.00  0.00     0.217 HD
ENDBRANCH  36  39
ENDBRANCH   4  26
TORSDOF 11
ENDMDL
MODEL 9
REMARK VINA RESULT:      -7.4      2.721      8.301
REMARK  11 active torsions:
REMARK  status: ('A' for Active; 'I' for Inactive)
REMARK    1  A    between atoms: O_2  and  C_17 
REMARK    2  A    between atoms: O_2  and  C_19 
REMARK    3  A    between atoms: O_3  and  C_13 
REMARK    4  A    between atoms: O_4  and  C_14 
REMARK    5  A    between atoms: O_5  and  C_15 
REMARK    6  A    between atoms: O_6  and  C_18 
REMARK    7  A    between atoms: O_8  and  C_21 
REMARK    8  A    between atoms: O_11  and  C_30 
REMARK    9  A    between atoms: O_12  and  C_33 
REMARK   10  A    between atoms: C_16  and  C_18 
REMARK   11  A    between atoms: C_22  and  C_25 
ROOT
ATOM      1  C   UNK d   1      10.183  18.954   2.136  0.00  0.00     0.106 A 
ATOM      2  C   UNK d   1       9.631  17.660   2.203  0.00  0.00     0.054 A 
ATOM      3  C   UNK d   1       9.497  19.959   1.433  0.00  0.00     0.101 A 
ATOM      4  C   UNK d   1       8.437  17.318   1.541  0.00  0.00     0.001 A 
ATOM      5  C   UNK d   1       8.299  19.641   0.790  0.00  0.00     0.040 A 
ATOM      6  C   UNK d   1       7.786  18.340   0.837  0.00  0.00     0.017 A 
ENDROOT
BRANCH   1   7
ATOM      7  O   UNK d   1      11.379  19.324   2.712  0.00  0.00    -0.315 OA
BRANCH   7   8
ATOM      8  C   UNK d   1      11.541  19.112   4.117  0.00  0.00     0.299 C 
ATOM      9  O   UNK d   1      10.808  20.107   4.838  0.00  0.00    -0.340 OA
ATOM     10  C   UNK d   1      10.851  19.950   6.250  0.00  0.00     0.253 C 
ATOM     11  C   UNK d   1      12.293  20.041   6.756  0.00  0.00     0.189 C 
ATOM     12  C   UNK d   1      13.175  19.044   6.003  0.00  0.00     0.183 C 
ATOM     13  C   UNK d   1      13.038  19.200   4.485  0.00  0.00     0.205 C 
BRANCH  10  14
ATOM     14  C   UNK d   1       9.998  21.024   6.947  0.00  0.00     0.172 C 
ATOM     15  O   UNK d   1       8.795  20.953   7.140  0.00  0.00    -0.648 OA
BRANCH  14  16
ATOM     16  O   UNK d   1      10.726  22.079   7.400  0.00  0.00    -0.774 OA
ATOM     17  H   UNK d   1      11.323  22.449   6.707  0.00  0.00     0.167 HD
ENDBRANCH  14  16
ENDBRANCH  10  14
BRANCH  11  18
ATOM     18  O   UNK d   1      12.339  19.729   8.163  0.00  0.00    -0.390 OA
ATOM     19  H   UNK d   1      11.844  18.888   8.260  0.00  0.00     0.210 HD
ENDBRANCH  11  18
BRANCH  12  20
ATOM     20  O   UNK d   1      14.545  19.228   6.396  0.00  0.00    -0.390 OA
ATOM     21  H   UNK d   1      14.545  19.448   7.346  0.00  0.00     0.210 HD
ENDBRANCH  12  20
BRANCH  13  22
ATOM     22  O   UNK d   1      13.798  18.146   3.872  0.00  0.00    -0.388 OA
ATOM     23  H   UNK d   1      13.468  17.318   4.269  0.00  0.00     0.210 HD
ENDBRANCH  13  22
ENDBRANCH   7   8
ENDBRANCH   1   7
BRANCH   3  24
ATOM     24  O   UNK d   1      10.066  21.208   1.420  0.00  0.00    -0.353 OA
ATOM     25  C   UNK d   1      10.543  21.692   0.170  0.00  0.00     0.210 C 
ENDBRANCH   3  24
BRANCH   4  26
ATOM     26  C   UNK d   1       7.916  15.917   1.584  0.00  0.00     0.090 A 
ATOM     27  O   UNK d   1       8.567  15.082   2.486  0.00  0.00    -0.309 OA
ATOM     28  C   UNK d   1       8.163  13.773   2.596  0.00  0.00     0.095 A 
ATOM     29  C   UNK d   1       7.136  13.216   1.831  0.00  0.00     0.081 A 
ATOM     30  C   UNK d   1       8.844  12.991   3.532  0.00  0.00     0.075 A 
ATOM     31  C   UNK d   1       6.457  14.094   0.859  0.00  0.00     0.190 A 
ATOM     32  C   UNK d   1       6.793  11.868   2.013  0.00  0.00     0.085 A 
ATOM     33  O   UNK d   1       5.558  13.739   0.107  0.00  0.00    -0.287 OA
ATOM     34  C   UNK d   1       6.915  15.491   0.801  0.00  0.00     0.094 A 
ATOM     35  C   UNK d   1       7.471  11.083   2.950  0.00  0.00     0.074 A 
ATOM     36  C   UNK d   1       8.494  11.656   3.700  0.00  0.00     0.071 A 
BRANCH  32  37
ATOM     37  O   UNK d   1       5.792  11.298   1.279  0.00  0.00    -0.360 OA
ATOM     38  H   UNK d   1       5.844  10.331   1.309  0.00  0.00     0.217 HD
ENDBRANCH  32  37
BRANCH  36  39
ATOM     39  O   UNK d   1       9.186  10.930   4.624  0.00  0.00    -0.361 OA
ATOM     40  H   UNK d   1       8.785  11.059   5.500  0.00  0.00     0.217 HD
ENDBRANCH  36  39
ENDBRANCH   4  26
TORSDOF 11
ENDMDL
