MODEL 1
REMARK minimizedAffinity -6.46976995REMARK CNNscore 0.329152852REMARK CNNaffinity 4.50830269REMARK  11 active torsions:
REMARK  status: ('A' for Active; 'I' for Inactive)
REMARK    1  A    between atoms: O_2  and  C_17 
REMARK    2  A    between atoms: O_2  and  C_19 
REMARK    3  A    between atoms: O_3  and  C_13 
REMARK    4  A    between atoms: O_4  and  C_14 
REMARK    5  A    between atoms: O_5  and  C_15 
REMARK    6  A    between atoms: O_6  and  C_18 
REMARK    7  A    between atoms: O_8  and  C_21 
REMARK    8  A    between atoms: O_11  and  C_30 
REMARK    9  A    between atoms: O_12  and  C_33 
REMARK   10  A    between atoms: C_16  and  C_18 
REMARK   11  A    between atoms: C_22  and  C_25 
ROOT
ATOM      1  C   UNK d   1      21.817 -13.852   3.177  0.00  0.00     0.106 A 
ATOM      2  C   UNK d   1      21.606 -14.939   4.048  0.00  0.00     0.054 A 
ATOM      3  C   UNK d   1      22.778 -12.881   3.509  0.00  0.00     0.101 A 
ATOM      4  C   UNK d   1      22.287 -15.061   5.275  0.00  0.00     0.001 A 
ATOM      5  C   UNK d   1      23.478 -13.001   4.710  0.00  0.00     0.040 A 
ATOM      6  C   UNK d   1      23.227 -14.068   5.580  0.00  0.00     0.017 A 
ENDROOT
BRANCH   1   7
ATOM      7  O   UNK d   1      21.133 -13.653   1.998  0.00  0.00    -0.315 OA
BRANCH   7   8
ATOM      8  C   UNK d   1      21.605 -14.324   0.827  0.00  0.00     0.299 C 
ATOM      9  O   UNK d   1      21.913 -13.361  -0.184  0.00  0.00    -0.340 OA
ATOM     10  C   UNK d   1      22.452 -13.922  -1.374  0.00  0.00     0.253 C 
ATOM     11  C   UNK d   1      21.454 -14.892  -2.010  0.00  0.00     0.189 C 
ATOM     12  C   UNK d   1      21.018 -15.940  -0.984  0.00  0.00     0.183 C 
ATOM     13  C   UNK d   1      20.516 -15.290   0.310  0.00  0.00     0.205 C 
BRANCH  10  14
ATOM     14  C   UNK d   1      22.806 -12.819  -2.388  0.00  0.00     0.172 C 
ATOM     15  O   UNK d   1      23.143 -13.008  -3.546  0.00  0.00    -0.648 OA
BRANCH  14  16
ATOM     16  O   UNK d   1      22.656 -11.563  -1.891  0.00  0.00    -0.774 OA
ATOM     17  H   UNK d   1      22.472 -11.562  -0.921  0.00  0.00     0.167 HD
ENDBRANCH  14  16
ENDBRANCH  10  14
BRANCH  11  18
ATOM     18  O   UNK d   1      22.068 -15.567  -3.126  0.00  0.00    -0.390 OA
ATOM     19  H   UNK d   1      21.348 -16.080  -3.550  0.00  0.00     0.210 HD
ENDBRANCH  11  18
BRANCH  12  20
ATOM     20  O   UNK d   1      19.988 -16.765  -1.553  0.00  0.00    -0.390 OA
ATOM     21  H   UNK d   1      20.421 -17.567  -1.901  0.00  0.00     0.210 HD
ENDBRANCH  12  20
BRANCH  13  22
ATOM     22  O   UNK d   1      20.254 -16.346   1.249  0.00  0.00    -0.388 OA
ATOM     23  H   UNK d   1      19.530 -16.872   0.859  0.00  0.00     0.210 HD
ENDBRANCH  13  22
ENDBRANCH   7   8
ENDBRANCH   1   7
BRANCH   3  24
ATOM     24  O   UNK d   1      22.961 -11.857   2.613  0.00  0.00    -0.353 OA
ATOM     25  C   UNK d   1      24.295 -11.591   2.194  0.00  0.00     0.210 C 
ENDBRANCH   3  24
BRANCH   4  26
ATOM     26  C   UNK d   1      21.990 -16.195   6.201  0.00  0.00     0.090 A 
ATOM     27  O   UNK d   1      21.281 -17.246   5.627  0.00  0.00    -0.309 OA
ATOM     28  C   UNK d   1      20.956 -18.334   6.400  0.00  0.00     0.095 A 
ATOM     29  C   UNK d   1      21.282 -18.444   7.754  0.00  0.00     0.081 A 
ATOM     30  C   UNK d   1      20.260 -19.363   5.760  0.00  0.00     0.075 A 
ATOM     31  C   UNK d   1      22.016 -17.323   8.372  0.00  0.00     0.190 A 
ATOM     32  C   UNK d   1      20.907 -19.595   8.463  0.00  0.00     0.085 A 
ATOM     33  O   UNK d   1      22.347 -17.270   9.549  0.00  0.00    -0.287 OA
ATOM     34  C   UNK d   1      22.357 -16.195   7.490  0.00  0.00     0.094 A 
ATOM     35  C   UNK d   1      20.212 -20.626   7.825  0.00  0.00     0.074 A 
ATOM     36  C   UNK d   1      19.894 -20.497   6.477  0.00  0.00     0.071 A 
BRANCH  32  37
ATOM     37  O   UNK d   1      21.213 -19.729   9.787  0.00  0.00    -0.360 OA
ATOM     38  H   UNK d   1      20.911 -20.583  10.131  0.00  0.00     0.217 HD
ENDBRANCH  32  37
BRANCH  36  39
ATOM     39  O   UNK d   1      19.215 -21.475   5.812  0.00  0.00    -0.361 OA
ATOM     40  H   UNK d   1      19.053 -22.220   6.416  0.00  0.00     0.217 HD
ENDBRANCH  36  39
ENDBRANCH   4  26
TORSDOF 11
ENDMDL
MODEL 2
REMARK minimizedAffinity -7.12392712REMARK CNNscore 0.316957712REMARK CNNaffinity 4.56679153REMARK  11 active torsions:
REMARK  status: ('A' for Active; 'I' for Inactive)
REMARK    1  A    between atoms: O_2  and  C_17 
REMARK    2  A    between atoms: O_2  and  C_19 
REMARK    3  A    between atoms: O_3  and  C_13 
REMARK    4  A    between atoms: O_4  and  C_14 
REMARK    5  A    between atoms: O_5  and  C_15 
REMARK    6  A    between atoms: O_6  and  C_18 
REMARK    7  A    between atoms: O_8  and  C_21 
REMARK    8  A    between atoms: O_11  and  C_30 
REMARK    9  A    between atoms: O_12  and  C_33 
REMARK   10  A    between atoms: C_16  and  C_18 
REMARK   11  A    between atoms: C_22  and  C_25 
ROOT
ATOM      1  C   UNK d   1      20.824 -16.554   0.303  0.00  0.00     0.106 A 
ATOM      2  C   UNK d   1      20.962 -16.725   1.694  0.00  0.00     0.054 A 
ATOM      3  C   UNK d   1      20.997 -15.275  -0.253  0.00  0.00     0.101 A 
ATOM      4  C   UNK d   1      21.214 -15.645   2.562  0.00  0.00     0.001 A 
ATOM      5  C   UNK d   1      21.271 -14.198   0.592  0.00  0.00     0.040 A 
ATOM      6  C   UNK d   1      21.367 -14.382   1.976  0.00  0.00     0.017 A 
ENDROOT
BRANCH   1   7
ATOM      7  O   UNK d   1      20.515 -17.564  -0.581  0.00  0.00    -0.315 OA
BRANCH   7   8
ATOM      8  C   UNK d   1      19.137 -17.907  -0.754  0.00  0.00     0.299 C 
ATOM      9  O   UNK d   1      18.871 -19.156  -0.111  0.00  0.00    -0.340 OA
ATOM     10  C   UNK d   1      17.510 -19.560  -0.169  0.00  0.00     0.253 C 
ATOM     11  C   UNK d   1      17.063 -19.733  -1.622  0.00  0.00     0.189 C 
ATOM     12  C   UNK d   1      17.356 -18.458  -2.414  0.00  0.00     0.183 C 
ATOM     13  C   UNK d   1      18.816 -18.019  -2.260  0.00  0.00     0.205 C 
BRANCH  10  14
ATOM     14  C   UNK d   1      17.298 -20.883   0.590  0.00  0.00     0.172 C 
ATOM     15  O   UNK d   1      18.180 -21.664   0.905  0.00  0.00    -0.648 OA
BRANCH  14  16
ATOM     16  O   UNK d   1      16.003 -21.096   0.946  0.00  0.00    -0.774 OA
ATOM     17  H   UNK d   1      15.389 -20.434   0.547  0.00  0.00     0.167 HD
ENDBRANCH  14  16
ENDBRANCH  10  14
BRANCH  11  18
ATOM     18  O   UNK d   1      15.646 -19.993  -1.672  0.00  0.00    -0.390 OA
ATOM     19  H   UNK d   1      15.452 -20.204  -2.610  0.00  0.00     0.210 HD
ENDBRANCH  11  18
BRANCH  12  20
ATOM     20  O   UNK d   1      17.050 -18.677  -3.801  0.00  0.00    -0.390 OA
ATOM     21  H   UNK d   1      16.150 -18.336  -3.955  0.00  0.00     0.210 HD
ENDBRANCH  12  20
BRANCH  13  22
ATOM     22  O   UNK d   1      18.959 -16.755  -2.929  0.00  0.00    -0.388 OA
ATOM     23  H   UNK d   1      18.782 -16.934  -3.872  0.00  0.00     0.210 HD
ENDBRANCH  13  22
ENDBRANCH   7   8
ENDBRANCH   1   7
BRANCH   3  24
ATOM     24  O   UNK d   1      20.877 -15.168  -1.617  0.00  0.00    -0.353 OA
ATOM     25  C   UNK d   1      21.989 -14.636  -2.328  0.00  0.00     0.210 C 
ENDBRANCH   3  24
BRANCH   4  26
ATOM     26  C   UNK d   1      21.291 -15.858   4.040  0.00  0.00     0.090 A 
ATOM     27  O   UNK d   1      22.079 -14.935   4.720  0.00  0.00    -0.309 OA
ATOM     28  C   UNK d   1      22.215 -15.049   6.083  0.00  0.00     0.095 A 
ATOM     29  C   UNK d   1      21.616 -16.062   6.836  0.00  0.00     0.081 A 
ATOM     30  C   UNK d   1      23.004 -14.082   6.710  0.00  0.00     0.075 A 
ATOM     31  C   UNK d   1      20.797 -17.055   6.115  0.00  0.00     0.190 A 
ATOM     32  C   UNK d   1      21.813 -16.098   8.225  0.00  0.00     0.085 A 
ATOM     33  O   UNK d   1      20.233 -18.007   6.638  0.00  0.00    -0.287 OA
ATOM     34  C   UNK d   1      20.668 -16.869   4.660  0.00  0.00     0.094 A 
ATOM     35  C   UNK d   1      22.601 -15.131   8.855  0.00  0.00     0.074 A 
ATOM     36  C   UNK d   1      23.190 -14.131   8.087  0.00  0.00     0.071 A 
BRANCH  32  37
ATOM     37  O   UNK d   1      21.239 -17.077   8.985  0.00  0.00    -0.360 OA
ATOM     38  H   UNK d   1      21.446 -16.956   9.924  0.00  0.00     0.217 HD
ENDBRANCH  32  37
BRANCH  36  39
ATOM     39  O   UNK d   1      23.969 -13.167   8.657  0.00  0.00    -0.361 OA
ATOM     40  H   UNK d   1      23.988 -13.297   9.620  0.00  0.00     0.217 HD
ENDBRANCH  36  39
ENDBRANCH   4  26
TORSDOF 11
ENDMDL
MODEL 3
REMARK minimizedAffinity -6.92759514REMARK CNNscore 0.30101943REMARK CNNaffinity 4.15608597REMARK  11 active torsions:
REMARK  status: ('A' for Active; 'I' for Inactive)
REMARK    1  A    between atoms: O_2  and  C_17 
REMARK    2  A    between atoms: O_2  and  C_19 
REMARK    3  A    between atoms: O_3  and  C_13 
REMARK    4  A    between atoms: O_4  and  C_14 
REMARK    5  A    between atoms: O_5  and  C_15 
REMARK    6  A    between atoms: O_6  and  C_18 
REMARK    7  A    between atoms: O_8  and  C_21 
REMARK    8  A    between atoms: O_11  and  C_30 
REMARK    9  A    between atoms: O_12  and  C_33 
REMARK   10  A    between atoms: C_16  and  C_18 
REMARK   11  A    between atoms: C_22  and  C_25 
ROOT
ATOM      1  C   UNK d   1      15.515 -27.731  23.547  0.00  0.00     0.106 A 
ATOM      2  C   UNK d   1      14.235 -27.177  23.744  0.00  0.00     0.054 A 
ATOM      3  C   UNK d   1      15.666 -28.818  22.669  0.00  0.00     0.101 A 
ATOM      4  C   UNK d   1      13.084 -27.709  23.133  0.00  0.00     0.001 A 
ATOM      5  C   UNK d   1      14.538 -29.342  22.038  0.00  0.00     0.040 A 
ATOM      6  C   UNK d   1      13.269 -28.802  22.275  0.00  0.00     0.017 A 
ENDROOT
BRANCH   1   7
ATOM      7  O   UNK d   1      16.661 -27.288  24.169  0.00  0.00    -0.315 OA
BRANCH   7   8
ATOM      8  C   UNK d   1      16.876 -27.669  25.532  0.00  0.00     0.299 C 
ATOM      9  O   UNK d   1      15.808 -28.516  25.964  0.00  0.00    -0.340 OA
ATOM     10  C   UNK d   1      15.955 -29.004  27.291  0.00  0.00     0.253 C 
ATOM     11  C   UNK d   1      16.000 -27.844  28.288  0.00  0.00     0.189 C 
ATOM     12  C   UNK d   1      17.085 -26.846  27.879  0.00  0.00     0.183 C 
ATOM     13  C   UNK d   1      16.930 -26.407  26.420  0.00  0.00     0.205 C 
BRANCH  10  14
ATOM     14  C   UNK d   1      14.797 -29.948  27.660  0.00  0.00     0.172 C 
ATOM     15  O   UNK d   1      14.742 -30.637  28.666  0.00  0.00    -0.648 OA
BRANCH  14  16
ATOM     16  O   UNK d   1      13.771 -29.913  26.769  0.00  0.00    -0.774 OA
ATOM     17  H   UNK d   1      13.990 -29.388  25.963  0.00  0.00     0.167 HD
ENDBRANCH  14  16
ENDBRANCH  10  14
BRANCH  11  18
ATOM     18  O   UNK d   1      16.303 -28.342  29.606  0.00  0.00    -0.390 OA
ATOM     19  H   UNK d   1      16.204 -27.571  30.206  0.00  0.00     0.210 HD
ENDBRANCH  11  18
BRANCH  12  20
ATOM     20  O   UNK d   1      17.032 -25.702  28.748  0.00  0.00    -0.390 OA
ATOM     21  H   UNK d   1      17.695 -25.842  29.449  0.00  0.00     0.210 HD
ENDBRANCH  12  20
BRANCH  13  22
ATOM     22  O   UNK d   1      18.059 -25.578  26.096  0.00  0.00    -0.388 OA
ATOM     23  H   UNK d   1      17.983 -24.793  26.671  0.00  0.00     0.210 HD
ENDBRANCH  13  22
ENDBRANCH   7   8
ENDBRANCH   1   7
BRANCH   3  24
ATOM     24  O   UNK d   1      16.938 -29.303  22.494  0.00  0.00    -0.353 OA
ATOM     25  C   UNK d   1      17.504 -29.189  21.194  0.00  0.00     0.210 C 
ENDBRANCH   3  24
BRANCH   4  26
ATOM     26  C   UNK d   1      11.735 -27.132  23.417  0.00  0.00     0.090 A 
ATOM     27  O   UNK d   1      11.355 -26.096  22.571  0.00  0.00    -0.309 OA
ATOM     28  C   UNK d   1      10.131 -25.497  22.754  0.00  0.00     0.095 A 
ATOM     29  C   UNK d   1       9.240 -25.859  23.767  0.00  0.00     0.081 A 
ATOM     30  C   UNK d   1       9.801 -24.476  21.861  0.00  0.00     0.075 A 
ATOM     31  C   UNK d   1       9.648 -26.944  24.679  0.00  0.00     0.190 A 
ATOM     32  C   UNK d   1       8.012 -25.190  23.877  0.00  0.00     0.085 A 
ATOM     33  O   UNK d   1       8.982 -27.351  25.623  0.00  0.00    -0.287 OA
ATOM     34  C   UNK d   1      10.958 -27.564  24.420  0.00  0.00     0.094 A 
ATOM     35  C   UNK d   1       7.678 -24.168  22.984  0.00  0.00     0.074 A 
ATOM     36  C   UNK d   1       8.581 -23.821  21.983  0.00  0.00     0.071 A 
BRANCH  32  37
ATOM     37  O   UNK d   1       7.121 -25.523  24.857  0.00  0.00    -0.360 OA
ATOM     38  H   UNK d   1       6.313 -24.993  24.791  0.00  0.00     0.217 HD
ENDBRANCH  32  37
BRANCH  36  39
ATOM     39  O   UNK d   1       8.301 -22.829  21.090  0.00  0.00    -0.361 OA
ATOM     40  H   UNK d   1       7.410 -22.481  21.265  0.00  0.00     0.217 HD
ENDBRANCH  36  39
ENDBRANCH   4  26
TORSDOF 11
ENDMDL
MODEL 4
REMARK minimizedAffinity -6.76905966REMARK CNNscore 0.275919914REMARK CNNaffinity 4.23913431REMARK  11 active torsions:
REMARK  status: ('A' for Active; 'I' for Inactive)
REMARK    1  A    between atoms: O_2  and  C_17 
REMARK    2  A    between atoms: O_2  and  C_19 
REMARK    3  A    between atoms: O_3  and  C_13 
REMARK    4  A    between atoms: O_4  and  C_14 
REMARK    5  A    between atoms: O_5  and  C_15 
REMARK    6  A    between atoms: O_6  and  C_18 
REMARK    7  A    between atoms: O_8  and  C_21 
REMARK    8  A    between atoms: O_11  and  C_30 
REMARK    9  A    between atoms: O_12  and  C_33 
REMARK   10  A    between atoms: C_16  and  C_18 
REMARK   11  A    between atoms: C_22  and  C_25 
ROOT
ATOM      1  C   UNK d   1      11.034  -8.395 -15.915  0.00  0.00     0.106 A 
ATOM      2  C   UNK d   1      11.291  -7.154 -15.300  0.00  0.00     0.054 A 
ATOM      3  C   UNK d   1      11.166  -9.575 -15.164  0.00  0.00     0.101 A 
ATOM      4  C   UNK d   1      11.731  -7.053 -13.967  0.00  0.00     0.001 A 
ATOM      5  C   UNK d   1      11.579  -9.491 -13.833  0.00  0.00     0.040 A 
ATOM      6  C   UNK d   1      11.866  -8.251 -13.251  0.00  0.00     0.017 A 
ENDROOT
BRANCH   1   7
ATOM      7  O   UNK d   1      10.663  -8.552 -17.233  0.00  0.00    -0.315 OA
BRANCH   7   8
ATOM      8  C   UNK d   1       9.415  -7.989 -17.650  0.00  0.00     0.299 C 
ATOM      9  O   UNK d   1       9.531  -6.565 -17.714  0.00  0.00    -0.340 OA
ATOM     10  C   UNK d   1       8.361  -5.908 -18.180  0.00  0.00     0.253 C 
ATOM     11  C   UNK d   1       7.180  -6.191 -17.249  0.00  0.00     0.189 C 
ATOM     12  C   UNK d   1       7.004  -7.700 -17.072  0.00  0.00     0.183 C 
ATOM     13  C   UNK d   1       8.310  -8.376 -16.642  0.00  0.00     0.205 C 
BRANCH  10  14
ATOM     14  C   UNK d   1       8.584  -4.388 -18.271  0.00  0.00     0.172 C 
ATOM     15  O   UNK d   1       7.722  -3.563 -18.526  0.00  0.00    -0.648 OA
BRANCH  14  16
ATOM     16  O   UNK d   1       9.858  -4.014 -17.980  0.00  0.00    -0.774 OA
ATOM     17  H   UNK d   1      10.465  -4.786 -17.885  0.00  0.00     0.167 HD
ENDBRANCH  14  16
ENDBRANCH  10  14
BRANCH  11  18
ATOM     18  O   UNK d   1       5.969  -5.648 -17.813  0.00  0.00    -0.390 OA
ATOM     19  H   UNK d   1       5.283  -5.763 -17.121  0.00  0.00     0.210 HD
ENDBRANCH  11  18
BRANCH  12  20
ATOM     20  O   UNK d   1       5.976  -7.950 -16.099  0.00  0.00    -0.390 OA
ATOM     21  H   UNK d   1       5.148  -8.106 -16.589  0.00  0.00     0.210 HD
ENDBRANCH  12  20
BRANCH  13  22
ATOM     22  O   UNK d   1       8.078  -9.794 -16.628  0.00  0.00    -0.388 OA
ATOM     23  H   UNK d   1       7.405  -9.944 -15.937  0.00  0.00     0.210 HD
ENDBRANCH  13  22
ENDBRANCH   7   8
ENDBRANCH   1   7
BRANCH   3  24
ATOM     24  O   UNK d   1      10.879 -10.755 -15.804  0.00  0.00    -0.353 OA
ATOM     25  C   UNK d   1      10.473 -11.852 -14.994  0.00  0.00     0.210 C 
ENDBRANCH   3  24
BRANCH   4  26
ATOM     26  C   UNK d   1      12.054  -5.722 -13.370  0.00  0.00     0.090 A 
ATOM     27  O   UNK d   1      12.561  -4.789 -14.268  0.00  0.00    -0.309 OA
ATOM     28  C   UNK d   1      12.892  -3.534 -13.813  0.00  0.00     0.095 A 
ATOM     29  C   UNK d   1      12.766  -3.140 -12.479  0.00  0.00     0.081 A 
ATOM     30  C   UNK d   1      13.379  -2.638 -14.767  0.00  0.00     0.075 A 
ATOM     31  C   UNK d   1      12.248  -4.134 -11.520  0.00  0.00     0.190 A 
ATOM     32  C   UNK d   1      13.130  -1.837 -12.108  0.00  0.00     0.085 A 
ATOM     33  O   UNK d   1      12.106  -3.938 -10.320  0.00  0.00    -0.287 OA
ATOM     34  C   UNK d   1      11.888  -5.452 -12.068  0.00  0.00     0.094 A 
ATOM     35  C   UNK d   1      13.617  -0.937 -13.061  0.00  0.00     0.074 A 
ATOM     36  C   UNK d   1      13.737  -1.350 -14.384  0.00  0.00     0.071 A 
BRANCH  32  37
ATOM     37  O   UNK d   1      13.017  -1.424 -10.811  0.00  0.00    -0.360 OA
ATOM     38  H   UNK d   1      13.283  -0.497 -10.715  0.00  0.00     0.217 HD
ENDBRANCH  32  37
BRANCH  36  39
ATOM     39  O   UNK d   1      14.209  -0.509 -15.348  0.00  0.00    -0.361 OA
ATOM     40  H   UNK d   1      14.387   0.362 -14.956  0.00  0.00     0.217 HD
ENDBRANCH  36  39
ENDBRANCH   4  26
TORSDOF 11
ENDMDL
MODEL 5
REMARK minimizedAffinity -7.55934954REMARK CNNscore 0.250330031REMARK CNNaffinity 4.19658184REMARK  11 active torsions:
REMARK  status: ('A' for Active; 'I' for Inactive)
REMARK    1  A    between atoms: O_2  and  C_17 
REMARK    2  A    between atoms: O_2  and  C_19 
REMARK    3  A    between atoms: O_3  and  C_13 
REMARK    4  A    between atoms: O_4  and  C_14 
REMARK    5  A    between atoms: O_5  and  C_15 
REMARK    6  A    between atoms: O_6  and  C_18 
REMARK    7  A    between atoms: O_8  and  C_21 
REMARK    8  A    between atoms: O_11  and  C_30 
REMARK    9  A    between atoms: O_12  and  C_33 
REMARK   10  A    between atoms: C_16  and  C_18 
REMARK   11  A    between atoms: C_22  and  C_25 
ROOT
ATOM      1  C   UNK d   1      15.883 -28.254  23.246  0.00  0.00     0.106 A 
ATOM      2  C   UNK d   1      14.659 -27.625  23.545  0.00  0.00     0.054 A 
ATOM      3  C   UNK d   1      15.927 -29.226  22.232  0.00  0.00     0.101 A 
ATOM      4  C   UNK d   1      13.457 -27.976  22.900  0.00  0.00     0.001 A 
ATOM      5  C   UNK d   1      14.749 -29.569  21.568  0.00  0.00     0.040 A 
ATOM      6  C   UNK d   1      13.535 -28.960  21.905  0.00  0.00     0.017 A 
ENDROOT
BRANCH   1   7
ATOM      7  O   UNK d   1      17.072 -27.993  23.890  0.00  0.00    -0.315 OA
BRANCH   7   8
ATOM      8  C   UNK d   1      17.023 -27.262  25.119  0.00  0.00     0.299 C 
ATOM      9  O   UNK d   1      18.086 -26.306  25.150  0.00  0.00    -0.340 OA
ATOM     10  C   UNK d   1      18.091 -25.481  26.307  0.00  0.00     0.253 C 
ATOM     11  C   UNK d   1      18.254 -26.329  27.570  0.00  0.00     0.189 C 
ATOM     12  C   UNK d   1      17.186 -27.424  27.605  0.00  0.00     0.183 C 
ATOM     13  C   UNK d   1      17.168 -28.238  26.308  0.00  0.00     0.205 C 
BRANCH  10  14
ATOM     14  C   UNK d   1      19.229 -24.447  26.238  0.00  0.00     0.172 C 
ATOM     15  O   UNK d   1      19.215 -23.426  25.568  0.00  0.00    -0.648 OA
BRANCH  14  16
ATOM     16  O   UNK d   1      20.273 -24.741  27.057  0.00  0.00    -0.774 OA
ATOM     17  H   UNK d   1      20.191 -25.636  27.465  0.00  0.00     0.167 HD
ENDBRANCH  14  16
ENDBRANCH  10  14
BRANCH  11  18
ATOM     18  O   UNK d   1      18.104 -25.500  28.740  0.00  0.00    -0.390 OA
ATOM     19  H   UNK d   1      18.330 -26.077  29.500  0.00  0.00     0.210 HD
ENDBRANCH  11  18
BRANCH  12  20
ATOM     20  O   UNK d   1      17.428 -28.289  28.727  0.00  0.00    -0.390 OA
ATOM     21  H   UNK d   1      16.859 -27.980  29.457  0.00  0.00     0.210 HD
ENDBRANCH  12  20
BRANCH  13  22
ATOM     22  O   UNK d   1      16.058 -29.149  26.385  0.00  0.00    -0.388 OA
ATOM     23  H   UNK d   1      16.260 -29.747  27.130  0.00  0.00     0.210 HD
ENDBRANCH  13  22
ENDBRANCH   7   8
ENDBRANCH   1   7
BRANCH   3  24
ATOM     24  O   UNK d   1      17.151 -29.790  21.965  0.00  0.00    -0.353 OA
ATOM     25  C   UNK d   1      17.605 -29.746  20.617  0.00  0.00     0.210 C 
ENDBRANCH   3  24
BRANCH   4  26
ATOM     26  C   UNK d   1      12.167 -27.330  23.290  0.00  0.00     0.090 A 
ATOM     27  O   UNK d   1      11.766 -26.285  22.463  0.00  0.00    -0.309 OA
ATOM     28  C   UNK d   1      10.593 -25.625  22.741  0.00  0.00     0.095 A 
ATOM     29  C   UNK d   1       9.776 -25.931  23.832  0.00  0.00     0.081 A 
ATOM     30  C   UNK d   1      10.236 -24.599  21.864  0.00  0.00     0.075 A 
ATOM     31  C   UNK d   1      10.209 -27.025  24.723  0.00  0.00     0.190 A 
ATOM     32  C   UNK d   1       8.595 -25.201  24.036  0.00  0.00     0.085 A 
ATOM     33  O   UNK d   1       9.608 -27.387  25.726  0.00  0.00    -0.287 OA
ATOM     34  C   UNK d   1      11.460 -27.711  24.362  0.00  0.00     0.094 A 
ATOM     35  C   UNK d   1       8.235 -24.174  23.159  0.00  0.00     0.074 A 
ATOM     36  C   UNK d   1       9.064 -23.883  22.080  0.00  0.00     0.071 A 
BRANCH  32  37
ATOM     37  O   UNK d   1       7.778 -25.479  25.094  0.00  0.00    -0.360 OA
ATOM     38  H   UNK d   1       6.994 -24.910  25.089  0.00  0.00     0.217 HD
ENDBRANCH  32  37
BRANCH  36  39
ATOM     39  O   UNK d   1       8.756 -22.889  21.199  0.00  0.00    -0.361 OA
ATOM     40  H   UNK d   1       7.901 -22.496  21.444  0.00  0.00     0.217 HD
ENDBRANCH  36  39
ENDBRANCH   4  26
TORSDOF 11
ENDMDL
MODEL 6
REMARK minimizedAffinity -6.9781456REMARK CNNscore 0.231127188REMARK CNNaffinity 4.16689396REMARK  11 active torsions:
REMARK  status: ('A' for Active; 'I' for Inactive)
REMARK    1  A    between atoms: O_2  and  C_17 
REMARK    2  A    between atoms: O_2  and  C_19 
REMARK    3  A    between atoms: O_3  and  C_13 
REMARK    4  A    between atoms: O_4  and  C_14 
REMARK    5  A    between atoms: O_5  and  C_15 
REMARK    6  A    between atoms: O_6  and  C_18 
REMARK    7  A    between atoms: O_8  and  C_21 
REMARK    8  A    between atoms: O_11  and  C_30 
REMARK    9  A    between atoms: O_12  and  C_33 
REMARK   10  A    between atoms: C_16  and  C_18 
REMARK   11  A    between atoms: C_22  and  C_25 
ROOT
ATOM      1  C   UNK d   1       8.178 -25.937  26.752  0.00  0.00     0.106 A 
ATOM      2  C   UNK d   1       7.766 -24.614  27.002  0.00  0.00     0.054 A 
ATOM      3  C   UNK d   1       7.892 -26.937  27.698  0.00  0.00     0.101 A 
ATOM      4  C   UNK d   1       7.123 -24.240  28.197  0.00  0.00     0.001 A 
ATOM      5  C   UNK d   1       7.234 -26.586  28.878  0.00  0.00     0.040 A 
ATOM      6  C   UNK d   1       6.866 -25.259  29.125  0.00  0.00     0.017 A 
ENDROOT
BRANCH   1   7
ATOM      7  O   UNK d   1       8.866 -26.342  25.630  0.00  0.00    -0.315 OA
BRANCH   7   8
ATOM      8  C   UNK d   1       8.255 -26.126  24.354  0.00  0.00     0.299 C 
ATOM      9  O   UNK d   1       7.915 -27.385  23.767  0.00  0.00    -0.340 OA
ATOM     10  C   UNK d   1       7.243 -27.281  22.520  0.00  0.00     0.253 C 
ATOM     11  C   UNK d   1       8.124 -26.564  21.494  0.00  0.00     0.189 C 
ATOM     12  C   UNK d   1       8.587 -25.218  22.052  0.00  0.00     0.183 C 
ATOM     13  C   UNK d   1       9.237 -25.370  23.432  0.00  0.00     0.205 C 
BRANCH  10  14
ATOM     14  C   UNK d   1       6.866 -28.673  21.982  0.00  0.00     0.172 C 
ATOM     15  O   UNK d   1       6.406 -28.901  20.875  0.00  0.00    -0.648 OA
BRANCH  14  16
ATOM     16  O   UNK d   1       7.146 -29.679  22.853  0.00  0.00    -0.774 OA
ATOM     17  H   UNK d   1       7.424 -29.344  23.738  0.00  0.00     0.167 HD
ENDBRANCH  14  16
ENDBRANCH  10  14
BRANCH  11  18
ATOM     18  O   UNK d   1       7.376 -26.330  20.284  0.00  0.00    -0.390 OA
ATOM     19  H   UNK d   1       8.026 -25.976  19.639  0.00  0.00     0.210 HD
ENDBRANCH  11  18
BRANCH  12  20
ATOM     20  O   UNK d   1       9.513 -24.614  21.135  0.00  0.00    -0.390 OA
ATOM     21  H   UNK d   1       9.006 -23.991  20.581  0.00  0.00     0.210 HD
ENDBRANCH  12  20
BRANCH  13  22
ATOM     22  O   UNK d   1       9.519 -24.050  23.924  0.00  0.00    -0.388 OA
ATOM     23  H   UNK d   1      10.174 -23.673  23.307  0.00  0.00     0.210 HD
ENDBRANCH  13  22
ENDBRANCH   7   8
ENDBRANCH   1   7
BRANCH   3  24
ATOM     24  O   UNK d   1       8.293 -28.214  27.394  0.00  0.00    -0.353 OA
ATOM     25  C   UNK d   1       9.274 -28.805  28.238  0.00  0.00     0.210 C 
ENDBRANCH   3  24
BRANCH   4  26
ATOM     26  C   UNK d   1       6.758 -22.813  28.452  0.00  0.00     0.090 A 
ATOM     27  O   UNK d   1       7.810 -21.912  28.328  0.00  0.00    -0.309 OA
ATOM     28  C   UNK d   1       7.576 -20.576  28.547  0.00  0.00     0.095 A 
ATOM     29  C   UNK d   1       6.329 -20.062  28.911  0.00  0.00     0.081 A 
ATOM     30  C   UNK d   1       8.668 -19.721  28.388  0.00  0.00     0.075 A 
ATOM     31  C   UNK d   1       5.215 -21.017  29.065  0.00  0.00     0.190 A 
ATOM     32  C   UNK d   1       6.185 -18.681  29.114  0.00  0.00     0.085 A 
ATOM     33  O   UNK d   1       4.078 -20.715  29.401  0.00  0.00    -0.287 OA
ATOM     34  C   UNK d   1       5.520 -22.431  28.795  0.00  0.00     0.094 A 
ATOM     35  C   UNK d   1       7.277 -17.822  28.955  0.00  0.00     0.074 A 
ATOM     36  C   UNK d   1       8.511 -18.355  28.594  0.00  0.00     0.071 A 
BRANCH  32  37
ATOM     37  O   UNK d   1       4.978 -18.151  29.471  0.00  0.00    -0.360 OA
ATOM     38  H   UNK d   1       5.030 -17.186  29.551  0.00  0.00     0.217 HD
ENDBRANCH  32  37
BRANCH  36  39
ATOM     39  O   UNK d   1       9.605 -17.557  28.429  0.00  0.00    -0.361 OA
ATOM     40  H   UNK d   1       9.350 -16.629  28.568  0.00  0.00     0.217 HD
ENDBRANCH  36  39
ENDBRANCH   4  26
TORSDOF 11
ENDMDL
MODEL 7
REMARK minimizedAffinity -7.74168015REMARK CNNscore 0.23014161REMARK CNNaffinity 4.73395252REMARK  11 active torsions:
REMARK  status: ('A' for Active; 'I' for Inactive)
REMARK    1  A    between atoms: O_2  and  C_17 
REMARK    2  A    between atoms: O_2  and  C_19 
REMARK    3  A    between atoms: O_3  and  C_13 
REMARK    4  A    between atoms: O_4  and  C_14 
REMARK    5  A    between atoms: O_5  and  C_15 
REMARK    6  A    between atoms: O_6  and  C_18 
REMARK    7  A    between atoms: O_8  and  C_21 
REMARK    8  A    between atoms: O_11  and  C_30 
REMARK    9  A    between atoms: O_12  and  C_33 
REMARK   10  A    between atoms: C_16  and  C_18 
REMARK   11  A    between atoms: C_22  and  C_25 
ROOT
ATOM      1  C   UNK d   1      18.882  -3.560  -3.382  0.00  0.00     0.106 A 
ATOM      2  C   UNK d   1      19.390  -2.247  -3.415  0.00  0.00     0.054 A 
ATOM      3  C   UNK d   1      19.774  -4.645  -3.429  0.00  0.00     0.101 A 
ATOM      4  C   UNK d   1      20.766  -1.977  -3.549  0.00  0.00     0.001 A 
ATOM      5  C   UNK d   1      21.143  -4.394  -3.539  0.00  0.00     0.040 A 
ATOM      6  C   UNK d   1      21.626  -3.082  -3.608  0.00  0.00     0.017 A 
ENDROOT
BRANCH   1   7
ATOM      7  O   UNK d   1      17.543  -3.877  -3.316  0.00  0.00    -0.315 OA
BRANCH   7   8
ATOM      8  C   UNK d   1      16.798  -3.903  -4.537  0.00  0.00     0.299 C 
ATOM      9  O   UNK d   1      16.071  -2.679  -4.679  0.00  0.00    -0.340 OA
ATOM     10  C   UNK d   1      15.343  -2.575  -5.895  0.00  0.00     0.253 C 
ATOM     11  C   UNK d   1      14.304  -3.694  -5.996  0.00  0.00     0.189 C 
ATOM     12  C   UNK d   1      14.980  -5.053  -5.803  0.00  0.00     0.183 C 
ATOM     13  C   UNK d   1      15.814  -5.093  -4.518  0.00  0.00     0.205 C 
BRANCH  10  14
ATOM     14  C   UNK d   1      14.634  -1.213  -5.995  0.00  0.00     0.172 C 
ATOM     15  O   UNK d   1      13.436  -1.029  -5.853  0.00  0.00    -0.648 OA
BRANCH  14  16
ATOM     16  O   UNK d   1      15.489  -0.177  -6.209  0.00  0.00    -0.774 OA
ATOM     17  H   UNK d   1      16.409  -0.481  -6.396  0.00  0.00     0.167 HD
ENDBRANCH  14  16
ENDBRANCH  10  14
BRANCH  11  18
ATOM     18  O   UNK d   1      13.680  -3.669  -7.296  0.00  0.00    -0.390 OA
ATOM     19  H   UNK d   1      12.957  -4.330  -7.251  0.00  0.00     0.210 HD
ENDBRANCH  11  18
BRANCH  12  20
ATOM     20  O   UNK d   1      13.978  -6.083  -5.773  0.00  0.00    -0.390 OA
ATOM     21  H   UNK d   1      13.921  -6.456  -6.672  0.00  0.00     0.210 HD
ENDBRANCH  12  20
BRANCH  13  22
ATOM     22  O   UNK d   1      16.505  -6.353  -4.492  0.00  0.00    -0.388 OA
ATOM     23  H   UNK d   1      15.809  -7.034  -4.436  0.00  0.00     0.210 HD
ENDBRANCH  13  22
ENDBRANCH   7   8
ENDBRANCH   1   7
BRANCH   3  24
ATOM     24  O   UNK d   1      19.227  -5.902  -3.369  0.00  0.00    -0.353 OA
ATOM     25  C   UNK d   1      19.808  -6.904  -4.196  0.00  0.00     0.210 C 
ENDBRANCH   3  24
BRANCH   4  26
ATOM     26  C   UNK d   1      21.261  -0.570  -3.644  0.00  0.00     0.090 A 
ATOM     27  O   UNK d   1      20.342   0.398  -3.250  0.00  0.00    -0.309 OA
ATOM     28  C   UNK d   1      20.703   1.723  -3.304  0.00  0.00     0.095 A 
ATOM     29  C   UNK d   1      21.948   2.165  -3.757  0.00  0.00     0.081 A 
ATOM     30  C   UNK d   1      19.743   2.644  -2.878  0.00  0.00     0.075 A 
ATOM     31  C   UNK d   1      22.917   1.143  -4.195  0.00  0.00     0.190 A 
ATOM     32  C   UNK d   1      22.226   3.540  -3.777  0.00  0.00     0.085 A 
ATOM     33  O   UNK d   1      24.034   1.383  -4.636  0.00  0.00    -0.287 OA
ATOM     34  C   UNK d   1      22.485  -0.260  -4.092  0.00  0.00     0.094 A 
ATOM     35  C   UNK d   1      21.269   4.464  -3.350  0.00  0.00     0.074 A 
ATOM     36  C   UNK d   1      20.033   4.004  -2.905  0.00  0.00     0.071 A 
BRANCH  32  37
ATOM     37  O   UNK d   1      23.435   4.001  -4.215  0.00  0.00    -0.360 OA
ATOM     38  H   UNK d   1      23.487   4.966  -4.148  0.00  0.00     0.217 HD
ENDBRANCH  32  37
BRANCH  36  39
ATOM     39  O   UNK d   1      19.067   4.867  -2.481  0.00  0.00    -0.361 OA
ATOM     40  H   UNK d   1      19.409   5.776  -2.518  0.00  0.00     0.217 HD
ENDBRANCH  36  39
ENDBRANCH   4  26
TORSDOF 11
ENDMDL
MODEL 8
REMARK minimizedAffinity -7.32877207REMARK CNNscore 0.217487991REMARK CNNaffinity 4.16384888REMARK  11 active torsions:
REMARK  status: ('A' for Active; 'I' for Inactive)
REMARK    1  A    between atoms: O_2  and  C_17 
REMARK    2  A    between atoms: O_2  and  C_19 
REMARK    3  A    between atoms: O_3  and  C_13 
REMARK    4  A    between atoms: O_4  and  C_14 
REMARK    5  A    between atoms: O_5  and  C_15 
REMARK    6  A    between atoms: O_6  and  C_18 
REMARK    7  A    between atoms: O_8  and  C_21 
REMARK    8  A    between atoms: O_11  and  C_30 
REMARK    9  A    between atoms: O_12  and  C_33 
REMARK   10  A    between atoms: C_16  and  C_18 
REMARK   11  A    between atoms: C_22  and  C_25 
ROOT
ATOM      1  C   UNK d   1       7.437 -26.152  26.225  0.00  0.00     0.106 A 
ATOM      2  C   UNK d   1       7.003 -24.870  26.616  0.00  0.00     0.054 A 
ATOM      3  C   UNK d   1       8.350 -26.846  27.038  0.00  0.00     0.101 A 
ATOM      4  C   UNK d   1       7.493 -24.231  27.771  0.00  0.00     0.001 A 
ATOM      5  C   UNK d   1       8.828 -26.235  28.198  0.00  0.00     0.040 A 
ATOM      6  C   UNK d   1       8.413 -24.946  28.550  0.00  0.00     0.017 A 
ENDROOT
BRANCH   1   7
ATOM      7  O   UNK d   1       7.037 -26.794  25.074  0.00  0.00    -0.315 OA
BRANCH   7   8
ATOM      8  C   UNK d   1       7.595 -26.354  23.832  0.00  0.00     0.299 C 
ATOM      9  O   UNK d   1       9.019 -26.287  23.945  0.00  0.00    -0.340 OA
ATOM     10  C   UNK d   1       9.680 -25.919  22.742  0.00  0.00     0.253 C 
ATOM     11  C   UNK d   1       9.229 -24.530  22.286  0.00  0.00     0.189 C 
ATOM     12  C   UNK d   1       7.704 -24.482  22.184  0.00  0.00     0.183 C 
ATOM     13  C   UNK d   1       7.035 -24.959  23.478  0.00  0.00     0.205 C 
BRANCH  10  14
ATOM     14  C   UNK d   1      11.207 -25.922  22.932  0.00  0.00     0.172 C 
ATOM     15  O   UNK d   1      11.972 -25.070  22.511  0.00  0.00    -0.648 OA
BRANCH  14  16
ATOM     16  O   UNK d   1      11.653 -26.964  23.684  0.00  0.00    -0.774 OA
ATOM     17  H   UNK d   1      10.942 -27.620  23.876  0.00  0.00     0.167 HD
ENDBRANCH  14  16
ENDBRANCH  10  14
BRANCH  11  18
ATOM     18  O   UNK d   1       9.788 -24.233  20.990  0.00  0.00    -0.390 OA
ATOM     19  H   UNK d   1       9.556 -23.297  20.813  0.00  0.00     0.210 HD
ENDBRANCH  11  18
BRANCH  12  20
ATOM     20  O   UNK d   1       7.288 -23.140  21.880  0.00  0.00    -0.390 OA
ATOM     21  H   UNK d   1       7.161 -23.090  20.915  0.00  0.00     0.210 HD
ENDBRANCH  12  20
BRANCH  13  22
ATOM     22  O   UNK d   1       5.618 -25.000  23.242  0.00  0.00    -0.388 OA
ATOM     23  H   UNK d   1       5.353 -24.076  23.072  0.00  0.00     0.210 HD
ENDBRANCH  13  22
ENDBRANCH   7   8
ENDBRANCH   1   7
BRANCH   3  24
ATOM     24  O   UNK d   1       8.721 -28.101  26.623  0.00  0.00    -0.353 OA
ATOM     25  C   UNK d   1      10.107 -28.418  26.670  0.00  0.00     0.210 C 
ENDBRANCH   3  24
BRANCH   4  26
ATOM     26  C   UNK d   1       7.055 -22.845  28.119  0.00  0.00     0.090 A 
ATOM     27  O   UNK d   1       8.072 -21.895  28.114  0.00  0.00    -0.309 OA
ATOM     28  C   UNK d   1       7.769 -20.590  28.425  0.00  0.00     0.095 A 
ATOM     29  C   UNK d   1       6.486 -20.158  28.769  0.00  0.00     0.081 A 
ATOM     30  C   UNK d   1       8.829 -19.682  28.385  0.00  0.00     0.075 A 
ATOM     31  C   UNK d   1       5.410 -21.166  28.795  0.00  0.00     0.190 A 
ATOM     32  C   UNK d   1       6.273 -18.804  29.071  0.00  0.00     0.085 A 
ATOM     33  O   UNK d   1       4.246 -20.938  29.099  0.00  0.00    -0.287 OA
ATOM     34  C   UNK d   1       5.788 -22.541  28.430  0.00  0.00     0.094 A 
ATOM     35  C   UNK d   1       7.331 -17.893  29.032  0.00  0.00     0.074 A 
ATOM     36  C   UNK d   1       8.602 -18.344  28.689  0.00  0.00     0.071 A 
BRANCH  32  37
ATOM     37  O   UNK d   1       5.029 -18.353  29.411  0.00  0.00    -0.360 OA
ATOM     38  H   UNK d   1       5.035 -17.397  29.568  0.00  0.00     0.217 HD
ENDBRANCH  32  37
BRANCH  36  39
ATOM     39  O   UNK d   1       9.666 -17.493  28.639  0.00  0.00    -0.361 OA
ATOM     40  H   UNK d   1       9.365 -16.590  28.837  0.00  0.00     0.217 HD
ENDBRANCH  36  39
ENDBRANCH   4  26
TORSDOF 11
ENDMDL
MODEL 9
REMARK minimizedAffinity -8.17738819REMARK CNNscore 0.210397944REMARK CNNaffinity 4.51285696REMARK  11 active torsions:
REMARK  status: ('A' for Active; 'I' for Inactive)
REMARK    1  A    between atoms: O_2  and  C_17 
REMARK    2  A    between atoms: O_2  and  C_19 
REMARK    3  A    between atoms: O_3  and  C_13 
REMARK    4  A    between atoms: O_4  and  C_14 
REMARK    5  A    between atoms: O_5  and  C_15 
REMARK    6  A    between atoms: O_6  and  C_18 
REMARK    7  A    between atoms: O_8  and  C_21 
REMARK    8  A    between atoms: O_11  and  C_30 
REMARK    9  A    between atoms: O_12  and  C_33 
REMARK   10  A    between atoms: C_16  and  C_18 
REMARK   11  A    between atoms: C_22  and  C_25 
ROOT
ATOM      1  C   UNK d   1      26.263  -4.507  20.472  0.00  0.00     0.106 A 
ATOM      2  C   UNK d   1      26.090  -3.471  19.533  0.00  0.00     0.054 A 
ATOM      3  C   UNK d   1      26.164  -5.844  20.048  0.00  0.00     0.101 A 
ATOM      4  C   UNK d   1      25.765  -3.725  18.187  0.00  0.00     0.001 A 
ATOM      5  C   UNK d   1      25.865  -6.111  18.711  0.00  0.00     0.040 A 
ATOM      6  C   UNK d   1      25.660  -5.068  17.801  0.00  0.00     0.017 A 
ENDROOT
BRANCH   1   7
ATOM      7  O   UNK d   1      26.519  -4.312  21.811  0.00  0.00    -0.315 OA
BRANCH   7   8
ATOM      8  C   UNK d   1      25.493  -3.714  22.610  0.00  0.00     0.299 C 
ATOM      9  O   UNK d   1      25.917  -2.417  23.038  0.00  0.00    -0.340 OA
ATOM     10  C   UNK d   1      24.942  -1.707  23.790  0.00  0.00     0.253 C 
ATOM     11  C   UNK d   1      24.585  -2.474  25.065  0.00  0.00     0.189 C 
ATOM     12  C   UNK d   1      24.167  -3.903  24.716  0.00  0.00     0.183 C 
ATOM     13  C   UNK d   1      25.213  -4.602  23.842  0.00  0.00     0.205 C 
BRANCH  10  14
ATOM     14  C   UNK d   1      25.452  -0.304  24.165  0.00  0.00     0.172 C 
ATOM     15  O   UNK d   1      25.816   0.039  25.278  0.00  0.00    -0.648 OA
BRANCH  14  16
ATOM     16  O   UNK d   1      25.523   0.543  23.104  0.00  0.00    -0.774 OA
ATOM     17  H   UNK d   1      25.112   0.164  22.291  0.00  0.00     0.167 HD
ENDBRANCH  14  16
ENDBRANCH  10  14
BRANCH  11  18
ATOM     18  O   UNK d   1      23.490  -1.823  25.739  0.00  0.00    -0.390 OA
ATOM     19  H   UNK d   1      23.391  -2.294  26.594  0.00  0.00     0.210 HD
ENDBRANCH  11  18
BRANCH  12  20
ATOM     20  O   UNK d   1      23.958  -4.648  25.928  0.00  0.00    -0.390 OA
ATOM     21  H   UNK d   1      23.003  -4.621  26.121  0.00  0.00     0.210 HD
ENDBRANCH  12  20
BRANCH  13  22
ATOM     22  O   UNK d   1      24.676  -5.880  23.464  0.00  0.00    -0.388 OA
ATOM     23  H   UNK d   1      24.575  -6.380  24.297  0.00  0.00     0.210 HD
ENDBRANCH  13  22
ENDBRANCH   7   8
ENDBRANCH   1   7
BRANCH   3  24
ATOM     24  O   UNK d   1      26.366  -6.814  20.998  0.00  0.00    -0.353 OA
ATOM     25  C   UNK d   1      26.141  -8.163  20.607  0.00  0.00     0.210 C 
ENDBRANCH   3  24
BRANCH   4  26
ATOM     26  C   UNK d   1      25.527  -2.597  17.235  0.00  0.00     0.090 A 
ATOM     27  O   UNK d   1      25.658  -1.329  17.792  0.00  0.00    -0.309 OA
ATOM     28  C   UNK d   1      25.455  -0.226  16.997  0.00  0.00     0.095 A 
ATOM     29  C   UNK d   1      25.101  -0.302  15.648  0.00  0.00     0.081 A 
ATOM     30  C   UNK d   1      25.619   1.018  17.610  0.00  0.00     0.075 A 
ATOM     31  C   UNK d   1      24.941  -1.646  15.059  0.00  0.00     0.190 A 
ATOM     32  C   UNK d   1      24.914   0.880  14.916  0.00  0.00     0.085 A 
ATOM     33  O   UNK d   1      24.612  -1.866  13.901  0.00  0.00    -0.287 OA
ATOM     34  C   UNK d   1      25.194  -2.789  15.952  0.00  0.00     0.094 A 
ATOM     35  C   UNK d   1      25.078   2.126  15.526  0.00  0.00     0.074 A 
ATOM     36  C   UNK d   1      25.429   2.181  16.872  0.00  0.00     0.071 A 
BRANCH  32  37
ATOM     37  O   UNK d   1      24.567   0.835  13.595  0.00  0.00    -0.360 OA
ATOM     38  H   UNK d   1      24.498   1.726  13.222  0.00  0.00     0.217 HD
ENDBRANCH  32  37
BRANCH  36  39
ATOM     39  O   UNK d   1      25.598   3.374  17.511  0.00  0.00    -0.361 OA
ATOM     40  H   UNK d   1      25.471   4.099  16.877  0.00  0.00     0.217 HD
ENDBRANCH  36  39
ENDBRANCH   4  26
TORSDOF 11
ENDMDL
