MODEL 1
REMARK minimizedAffinity -6.88789511REMARK CNNscore 0.942670226REMARK CNNaffinity 4.01213932REMARK  2 active torsions:
REMARK  status: ('A' for Active; 'I' for Inactive)
REMARK    1  A    between atoms: O_1  and  C_9 
REMARK    2  A    between atoms: N_3  and  C_4 
REMARK       I    between atoms: N_3  and  C_10 
ROOT
ATOM      1  C   LIG d   1       6.381  -0.357  -6.490  0.00  0.00     0.034 A 
ATOM      2  C   LIG d   1       6.141  -1.654  -6.028  0.00  0.00     0.032 A 
ATOM      3  C   LIG d   1       6.205  -0.080  -7.853  0.00  0.00     0.032 A 
ATOM      4  C   LIG d   1       5.731  -2.659  -6.911  0.00  0.00     0.039 A 
ATOM      5  C   LIG d   1       5.796  -1.083  -8.736  0.00  0.00     0.039 A 
ATOM      6  C   LIG d   1       5.562  -2.364  -8.259  0.00  0.00     0.065 A 
ENDROOT
BRANCH   1   7
ATOM      7  N   LIG d   1       6.793   0.710  -5.666  0.00  0.00    -0.328 N 
ATOM      8  C   LIG d   1       6.208   1.958  -5.547  0.00  0.00     0.218 C 
ATOM      9  O   LIG d   1       5.216   2.372  -6.136  0.00  0.00    -0.274 OA
ATOM     10  C   LIG d   1       6.946   2.831  -4.563  0.00  0.00     0.117 C 
ATOM     11  H   LIG d   1       7.612   0.538  -5.097  0.00  0.00     0.169 HD
ENDBRANCH   1   7
BRANCH   6  12
ATOM     12  O   LIG d   1       5.165  -3.314  -9.152  0.00  0.00    -0.361 OA
ATOM     13  H   LIG d   1       5.039  -4.151  -8.676  0.00  0.00     0.217 HD
ENDBRANCH   6  12
TORSDOF 2
ENDMDL
MODEL 2
REMARK minimizedAffinity -4.86234474REMARK CNNscore 0.860007465REMARK CNNaffinity 3.67312002REMARK  2 active torsions:
REMARK  status: ('A' for Active; 'I' for Inactive)
REMARK    1  A    between atoms: O_1  and  C_9 
REMARK    2  A    between atoms: N_3  and  C_4 
REMARK       I    between atoms: N_3  and  C_10 
ROOT
ATOM      1  C   LIG d   1      19.290   7.406  -3.096  0.00  0.00     0.034 A 
ATOM      2  C   LIG d   1      20.337   7.142  -3.982  0.00  0.00     0.032 A 
ATOM      3  C   LIG d   1      17.986   7.044  -3.462  0.00  0.00     0.032 A 
ATOM      4  C   LIG d   1      20.089   6.527  -5.215  0.00  0.00     0.039 A 
ATOM      5  C   LIG d   1      17.736   6.429  -4.692  0.00  0.00     0.039 A 
ATOM      6  C   LIG d   1      18.789   6.175  -5.558  0.00  0.00     0.065 A 
ENDROOT
BRANCH   1   7
ATOM      7  N   LIG d   1      19.457   8.019  -1.838  0.00  0.00    -0.328 N 
ATOM      8  C   LIG d   1      19.736   9.350  -1.579  0.00  0.00     0.218 C 
ATOM      9  O   LIG d   1      19.887  10.249  -2.398  0.00  0.00    -0.274 OA
ATOM     10  C   LIG d   1      19.848   9.621  -0.100  0.00  0.00     0.117 C 
ATOM     11  H   LIG d   1      19.363   7.413  -1.034  0.00  0.00     0.169 HD
ENDBRANCH   1   7
BRANCH   6  12
ATOM     12  O   LIG d   1      18.504   5.574  -6.748  0.00  0.00    -0.361 OA
ATOM     13  H   LIG d   1      19.333   5.461  -7.242  0.00  0.00     0.217 HD
ENDBRANCH   6  12
TORSDOF 2
ENDMDL
MODEL 3
REMARK minimizedAffinity -3.8587296REMARK CNNscore 0.786926985REMARK CNNaffinity 3.10803795REMARK  2 active torsions:
REMARK  status: ('A' for Active; 'I' for Inactive)
REMARK    1  A    between atoms: O_1  and  C_9 
REMARK    2  A    between atoms: N_3  and  C_4 
REMARK       I    between atoms: N_3  and  C_10 
ROOT
ATOM      1  C   LIG d   1      -0.521  -0.299  -1.376  0.00  0.00     0.034 A 
ATOM      2  C   LIG d   1      -0.669  -0.226  -2.763  0.00  0.00     0.032 A 
ATOM      3  C   LIG d   1      -0.526  -1.558  -0.761  0.00  0.00     0.032 A 
ATOM      4  C   LIG d   1      -0.819  -1.389  -3.526  0.00  0.00     0.039 A 
ATOM      5  C   LIG d   1      -0.675  -2.722  -1.520  0.00  0.00     0.039 A 
ATOM      6  C   LIG d   1      -0.821  -2.628  -2.896  0.00  0.00     0.065 A 
ENDROOT
BRANCH   1   7
ATOM      7  N   LIG d   1      -0.363   0.825  -0.540  0.00  0.00    -0.328 N 
ATOM      8  C   LIG d   1       0.822   1.380  -0.089  0.00  0.00     0.218 C 
ATOM      9  O   LIG d   1       1.960   1.000  -0.335  0.00  0.00    -0.274 OA
ATOM     10  C   LIG d   1       0.577   2.577   0.796  0.00  0.00     0.117 C 
ATOM     11  H   LIG d   1      -1.217   1.274  -0.236  0.00  0.00     0.169 HD
ENDBRANCH   1   7
BRANCH   6  12
ATOM     12  O   LIG d   1      -0.964  -3.786  -3.601  0.00  0.00    -0.361 OA
ATOM     13  H   LIG d   1      -1.053  -3.564  -4.543  0.00  0.00     0.217 HD
ENDBRANCH   6  12
TORSDOF 2
ENDMDL
MODEL 4
REMARK minimizedAffinity -4.1537261REMARK CNNscore 0.76076597REMARK CNNaffinity 3.17566252REMARK  2 active torsions:
REMARK  status: ('A' for Active; 'I' for Inactive)
REMARK    1  A    between atoms: O_1  and  C_9 
REMARK    2  A    between atoms: N_3  and  C_4 
REMARK       I    between atoms: N_3  and  C_10 
ROOT
ATOM      1  C   LIG d   1       0.532  10.518  -3.297  0.00  0.00     0.034 A 
ATOM      2  C   LIG d   1       1.097   9.981  -2.137  0.00  0.00     0.032 A 
ATOM      3  C   LIG d   1      -0.352  11.599  -3.181  0.00  0.00     0.032 A 
ATOM      4  C   LIG d   1       0.786  10.514  -0.881  0.00  0.00     0.039 A 
ATOM      5  C   LIG d   1      -0.663  12.134  -1.928  0.00  0.00     0.039 A 
ATOM      6  C   LIG d   1      -0.092  11.587  -0.788  0.00  0.00     0.065 A 
ENDROOT
BRANCH   1   7
ATOM      7  N   LIG d   1       0.795  10.039  -4.597  0.00  0.00    -0.328 N 
ATOM      8  C   LIG d   1       1.964  10.177  -5.325  0.00  0.00     0.218 C 
ATOM      9  O   LIG d   1       2.994  10.740  -4.975  0.00  0.00    -0.274 OA
ATOM     10  C   LIG d   1       1.855   9.531  -6.684  0.00  0.00     0.117 C 
ATOM     11  H   LIG d   1       0.039   9.538  -5.045  0.00  0.00     0.169 HD
ENDBRANCH   1   7
BRANCH   6  12
ATOM     12  O   LIG d   1      -0.421  12.137   0.415  0.00  0.00    -0.361 OA
ATOM     13  H   LIG d   1       0.053  11.655   1.113  0.00  0.00     0.217 HD
ENDBRANCH   6  12
TORSDOF 2
ENDMDL
MODEL 5
REMARK minimizedAffinity -4.48511219REMARK CNNscore 0.73374635REMARK CNNaffinity 3.52729464REMARK  2 active torsions:
REMARK  status: ('A' for Active; 'I' for Inactive)
REMARK    1  A    between atoms: O_1  and  C_9 
REMARK    2  A    between atoms: N_3  and  C_4 
REMARK       I    between atoms: N_3  and  C_10 
ROOT
ATOM      1  C   LIG d   1       6.350  -0.621  20.924  0.00  0.00     0.034 A 
ATOM      2  C   LIG d   1       5.199   0.170  20.961  0.00  0.00     0.032 A 
ATOM      3  C   LIG d   1       7.189  -0.543  19.804  0.00  0.00     0.032 A 
ATOM      4  C   LIG d   1       4.889   1.027  19.899  0.00  0.00     0.039 A 
ATOM      5  C   LIG d   1       6.882   0.313  18.742  0.00  0.00     0.039 A 
ATOM      6  C   LIG d   1       5.734   1.090  18.798  0.00  0.00     0.065 A 
ENDROOT
BRANCH   1   7
ATOM      7  N   LIG d   1       6.733  -1.506  21.953  0.00  0.00    -0.328 N 
ATOM      8  C   LIG d   1       6.489  -2.866  22.028  0.00  0.00     0.218 C 
ATOM      9  O   LIG d   1       5.895  -3.561  21.211  0.00  0.00    -0.274 OA
ATOM     10  C   LIG d   1       7.053  -3.466  23.292  0.00  0.00     0.117 C 
ATOM     11  H   LIG d   1       7.244  -1.095  22.722  0.00  0.00     0.169 HD
ENDBRANCH   1   7
BRANCH   6  12
ATOM     12  O   LIG d   1       5.470   1.911  17.743  0.00  0.00    -0.361 OA
ATOM     13  H   LIG d   1       4.644   2.389  17.924  0.00  0.00     0.217 HD
ENDBRANCH   6  12
TORSDOF 2
ENDMDL
MODEL 6
REMARK minimizedAffinity -4.00536108REMARK CNNscore 0.733162224REMARK CNNaffinity 2.83645248REMARK  2 active torsions:
REMARK  status: ('A' for Active; 'I' for Inactive)
REMARK    1  A    between atoms: O_1  and  C_9 
REMARK    2  A    between atoms: N_3  and  C_4 
REMARK       I    between atoms: N_3  and  C_10 
ROOT
ATOM      1  C   LIG d   1      16.583  -3.152  34.038  0.00  0.00     0.034 A 
ATOM      2  C   LIG d   1      16.858  -1.792  33.873  0.00  0.00     0.032 A 
ATOM      3  C   LIG d   1      15.619  -3.539  34.979  0.00  0.00     0.032 A 
ATOM      4  C   LIG d   1      16.181  -0.832  34.634  0.00  0.00     0.039 A 
ATOM      5  C   LIG d   1      14.942  -2.582  35.739  0.00  0.00     0.039 A 
ATOM      6  C   LIG d   1      15.228  -1.236  35.561  0.00  0.00     0.065 A 
ENDROOT
BRANCH   1   7
ATOM      7  N   LIG d   1      17.219  -4.179  33.310  0.00  0.00    -0.328 N 
ATOM      8  C   LIG d   1      18.276  -4.973  33.720  0.00  0.00     0.218 C 
ATOM      9  O   LIG d   1      18.857  -4.936  34.798  0.00  0.00    -0.274 OA
ATOM     10  C   LIG d   1      18.682  -5.958  32.653  0.00  0.00     0.117 C 
ATOM     11  H   LIG d   1      16.859  -4.351  32.381  0.00  0.00     0.169 HD
ENDBRANCH   1   7
BRANCH   6  12
ATOM     12  O   LIG d   1      14.546  -0.334  36.322  0.00  0.00    -0.361 OA
ATOM     13  H   LIG d   1      14.850   0.558  36.087  0.00  0.00     0.217 HD
ENDBRANCH   6  12
TORSDOF 2
ENDMDL
MODEL 7
REMARK minimizedAffinity -6.00980854REMARK CNNscore 0.717750728REMARK CNNaffinity 3.44936228REMARK  2 active torsions:
REMARK  status: ('A' for Active; 'I' for Inactive)
REMARK    1  A    between atoms: O_1  and  C_9 
REMARK    2  A    between atoms: N_3  and  C_4 
REMARK       I    between atoms: N_3  and  C_10 
ROOT
ATOM      1  C   LIG d   1       5.987  -1.590  -7.253  0.00  0.00     0.034 A 
ATOM      2  C   LIG d   1       6.529  -1.952  -6.017  0.00  0.00     0.032 A 
ATOM      3  C   LIG d   1       6.032  -0.245  -7.644  0.00  0.00     0.032 A 
ATOM      4  C   LIG d   1       7.108  -0.988  -5.184  0.00  0.00     0.039 A 
ATOM      5  C   LIG d   1       6.610   0.720  -6.814  0.00  0.00     0.039 A 
ATOM      6  C   LIG d   1       7.143   0.341  -5.590  0.00  0.00     0.065 A 
ENDROOT
BRANCH   1   7
ATOM      7  N   LIG d   1       5.389  -2.500  -8.148  0.00  0.00    -0.328 N 
ATOM      8  C   LIG d   1       4.594  -3.589  -7.838  0.00  0.00     0.218 C 
ATOM      9  O   LIG d   1       4.256  -3.967  -6.722  0.00  0.00    -0.274 OA
ATOM     10  C   LIG d   1       4.147  -4.327  -9.075  0.00  0.00     0.117 C 
ATOM     11  H   LIG d   1       5.565  -2.334  -9.131  0.00  0.00     0.169 HD
ENDBRANCH   1   7
BRANCH   6  12
ATOM     12  O   LIG d   1       7.698   1.311  -4.810  0.00  0.00    -0.361 OA
ATOM     13  H   LIG d   1       8.027   0.898  -3.994  0.00  0.00     0.217 HD
ENDBRANCH   6  12
TORSDOF 2
ENDMDL
MODEL 8
REMARK minimizedAffinity -3.55142665REMARK CNNscore 0.672500372REMARK CNNaffinity 2.96836352REMARK  2 active torsions:
REMARK  status: ('A' for Active; 'I' for Inactive)
REMARK    1  A    between atoms: O_1  and  C_9 
REMARK    2  A    between atoms: N_3  and  C_4 
REMARK       I    between atoms: N_3  and  C_10 
ROOT
ATOM      1  C   LIG d   1      -2.539  -4.386  18.734  0.00  0.00     0.034 A 
ATOM      2  C   LIG d   1      -2.618  -3.304  17.854  0.00  0.00     0.032 A 
ATOM      3  C   LIG d   1      -3.141  -5.599  18.372  0.00  0.00     0.032 A 
ATOM      4  C   LIG d   1      -3.287  -3.428  16.631  0.00  0.00     0.039 A 
ATOM      5  C   LIG d   1      -3.809  -5.726  17.151  0.00  0.00     0.039 A 
ATOM      6  C   LIG d   1      -3.877  -4.640  16.290  0.00  0.00     0.065 A 
ENDROOT
BRANCH   1   7
ATOM      7  N   LIG d   1      -1.882  -4.342  19.981  0.00  0.00    -0.328 N 
ATOM      8  C   LIG d   1      -2.413  -3.955  21.200  0.00  0.00     0.218 C 
ATOM      9  O   LIG d   1      -3.558  -3.581  21.425  0.00  0.00    -0.274 OA
ATOM     10  C   LIG d   1      -1.391  -4.037  22.306  0.00  0.00     0.117 C 
ATOM     11  H   LIG d   1      -0.912  -4.626  19.980  0.00  0.00     0.169 HD
ENDBRANCH   1   7
BRANCH   6  12
ATOM     12  O   LIG d   1      -4.537  -4.804  15.109  0.00  0.00    -0.361 OA
ATOM     13  H   LIG d   1      -4.500  -3.967  14.617  0.00  0.00     0.217 HD
ENDBRANCH   6  12
TORSDOF 2
ENDMDL
MODEL 9
REMARK minimizedAffinity -5.65607309REMARK CNNscore 0.668690205REMARK CNNaffinity 3.31074905REMARK  2 active torsions:
REMARK  status: ('A' for Active; 'I' for Inactive)
REMARK    1  A    between atoms: O_1  and  C_9 
REMARK    2  A    between atoms: N_3  and  C_4 
REMARK       I    between atoms: N_3  and  C_10 
ROOT
ATOM      1  C   LIG d   1       5.130  -3.182  -8.564  0.00  0.00     0.034 A 
ATOM      2  C   LIG d   1       5.651  -3.225  -7.268  0.00  0.00     0.032 A 
ATOM      3  C   LIG d   1       5.240  -1.993  -9.299  0.00  0.00     0.032 A 
ATOM      4  C   LIG d   1       6.274  -2.102  -6.714  0.00  0.00     0.039 A 
ATOM      5  C   LIG d   1       5.862  -0.870  -8.747  0.00  0.00     0.039 A 
ATOM      6  C   LIG d   1       6.373  -0.933  -7.459  0.00  0.00     0.065 A 
ENDROOT
BRANCH   1   7
ATOM      7  N   LIG d   1       4.491  -4.270  -9.194  0.00  0.00    -0.328 N 
ATOM      8  C   LIG d   1       3.315  -4.892  -8.813  0.00  0.00     0.218 C 
ATOM      9  O   LIG d   1       2.603  -4.612  -7.855  0.00  0.00    -0.274 OA
ATOM     10  C   LIG d   1       2.957  -6.027  -9.739  0.00  0.00     0.117 C 
ATOM     11  H   LIG d   1       4.949  -4.635 -10.018  0.00  0.00     0.169 HD
ENDBRANCH   1   7
BRANCH   6  12
ATOM     12  O   LIG d   1       6.972   0.184  -6.957  0.00  0.00    -0.361 OA
ATOM     13  H   LIG d   1       7.280  -0.010  -6.056  0.00  0.00     0.217 HD
ENDBRANCH   6  12
TORSDOF 2
ENDMDL
