MODEL 1
REMARK VINA RESULT:      -4.9      0.000      0.000
REMARK  1 active torsions:
REMARK  status: ('A' for Active; 'I' for Inactive)
REMARK    1  A    between atoms: C_3  and  C_7 
ROOT
ATOM      1  N   LIG d   1       7.946  27.695 -11.544  0.00  0.00    -0.067 N 
ATOM      2  C   LIG d   1       7.294  26.533 -12.279  0.00  0.00     0.222 C 
ATOM      3  C   LIG d   1       7.054  25.542 -11.136  0.00  0.00     0.040 C 
ATOM      4  C   LIG d   1       6.872  26.373  -9.868  0.00  0.00     0.030 C 
ATOM      5  C   LIG d   1       7.246  27.803 -10.218  0.00  0.00     0.235 C 
ATOM      6  C   LIG d   1       8.055  28.990 -12.285  0.00  0.00     0.270 C 
ATOM      7  H   LIG d   1       8.910  27.397 -11.344  0.00  0.00     0.280 HD
ENDROOT
BRANCH   2   8
ATOM      8  C   LIG d   1       6.085  26.891 -13.107  0.00  0.00    -0.010 A 
ATOM      9  C   LIG d   1       4.821  26.981 -12.504  0.00  0.00     0.012 A 
ATOM     10  C   LIG d   1       3.695  27.283 -13.268  0.00  0.00     0.020 A 
ATOM     11  C   LIG d   1       3.861  27.480 -14.625  0.00  0.00     0.116 A 
ATOM     12  N   LIG d   1       5.057  27.397 -15.244  0.00  0.00    -0.273 NA
ATOM     13  C   LIG d   1       6.134  27.121 -14.480  0.00  0.00     0.125 A 
ENDBRANCH   2   8
TORSDOF 1
ENDMDL
MODEL 2
REMARK VINA RESULT:      -4.8      1.654      4.223
REMARK  1 active torsions:
REMARK  status: ('A' for Active; 'I' for Inactive)
REMARK    1  A    between atoms: C_3  and  C_7 
ROOT
ATOM      1  N   LIG d   1       6.443  29.114 -14.013  0.00  0.00    -0.067 N 
ATOM      2  C   LIG d   1       7.540  28.159 -13.563  0.00  0.00     0.222 C 
ATOM      3  C   LIG d   1       8.797  28.998 -13.811  0.00  0.00     0.040 C 
ATOM      4  C   LIG d   1       8.385  30.460 -13.658  0.00  0.00     0.030 C 
ATOM      5  C   LIG d   1       6.868  30.486 -13.570  0.00  0.00     0.235 C 
ATOM      6  C   LIG d   1       5.040  28.758 -13.637  0.00  0.00     0.270 C 
ATOM      7  H   LIG d   1       6.473  29.113 -15.040  0.00  0.00     0.280 HD
ENDROOT
BRANCH   2   8
ATOM      8  C   LIG d   1       7.380  27.605 -12.170  0.00  0.00    -0.010 A 
ATOM      9  C   LIG d   1       6.983  26.271 -11.985  0.00  0.00     0.012 A 
ATOM     10  C   LIG d   1       6.805  25.760 -10.701  0.00  0.00     0.020 A 
ATOM     11  C   LIG d   1       7.021  26.602  -9.628  0.00  0.00     0.116 A 
ATOM     12  N   LIG d   1       7.397  27.890  -9.762  0.00  0.00    -0.273 NA
ATOM     13  C   LIG d   1       7.579  28.357 -11.015  0.00  0.00     0.125 A 
ENDBRANCH   2   8
TORSDOF 1
ENDMDL
MODEL 3
REMARK VINA RESULT:      -4.7     40.649     42.858
REMARK  1 active torsions:
REMARK  status: ('A' for Active; 'I' for Inactive)
REMARK    1  A    between atoms: C_3  and  C_7 
ROOT
ATOM      1  N   LIG d   1       8.031  -0.895  22.340  0.00  0.00    -0.067 N 
ATOM      2  C   LIG d   1       7.676   0.515  21.891  0.00  0.00     0.222 C 
ATOM      3  C   LIG d   1       9.019   1.234  22.043  0.00  0.00     0.040 C 
ATOM      4  C   LIG d   1      10.105   0.181  21.836  0.00  0.00     0.030 C 
ATOM      5  C   LIG d   1       9.411  -1.171  21.812  0.00  0.00     0.235 C 
ATOM      6  C   LIG d   1       7.036  -1.971  22.041  0.00  0.00     0.270 C 
ATOM      7  H   LIG d   1       8.110  -0.853  23.364  0.00  0.00     0.280 HD
ENDROOT
BRANCH   2   8
ATOM      8  C   LIG d   1       7.024   0.615  20.534  0.00  0.00    -0.010 A 
ATOM      9  C   LIG d   1       5.718   1.118  20.417  0.00  0.00     0.012 A 
ATOM     10  C   LIG d   1       5.099   1.185  19.171  0.00  0.00     0.020 A 
ATOM     11  C   LIG d   1       5.800   0.739  18.068  0.00  0.00     0.116 A 
ATOM     12  N   LIG d   1       7.053   0.243  18.138  0.00  0.00    -0.273 NA
ATOM     13  C   LIG d   1       7.637   0.204  19.354  0.00  0.00     0.125 A 
ENDBRANCH   2   8
TORSDOF 1
ENDMDL
MODEL 4
REMARK VINA RESULT:      -4.7     46.722     48.515
REMARK  1 active torsions:
REMARK  status: ('A' for Active; 'I' for Inactive)
REMARK    1  A    between atoms: C_3  and  C_7 
ROOT
ATOM      1  N   LIG d   1       7.340  -4.130  25.992  0.00  0.00    -0.067 N 
ATOM      2  C   LIG d   1       7.915  -3.667  24.661  0.00  0.00     0.222 C 
ATOM      3  C   LIG d   1       9.415  -3.880  24.885  0.00  0.00     0.040 C 
ATOM      4  C   LIG d   1       9.551  -5.031  25.879  0.00  0.00     0.030 C 
ATOM      5  C   LIG d   1       8.158  -5.318  26.415  0.00  0.00     0.235 C 
ATOM      6  C   LIG d   1       5.862  -4.355  26.048  0.00  0.00     0.270 C 
ATOM      7  H   LIG d   1       7.541  -3.378  26.663  0.00  0.00     0.280 HD
ENDROOT
BRANCH   2   8
ATOM      8  C   LIG d   1       7.329  -4.329  23.439  0.00  0.00    -0.010 A 
ATOM      9  C   LIG d   1       7.672  -5.653  23.124  0.00  0.00     0.012 A 
ATOM     10  C   LIG d   1       7.157  -6.261  21.981  0.00  0.00     0.020 A 
ATOM     11  C   LIG d   1       6.314  -5.524  21.172  0.00  0.00     0.116 A 
ATOM     12  N   LIG d   1       5.964  -4.248  21.437  0.00  0.00    -0.273 NA
ATOM     13  C   LIG d   1       6.462  -3.687  22.558  0.00  0.00     0.125 A 
ENDBRANCH   2   8
TORSDOF 1
ENDMDL
MODEL 5
REMARK VINA RESULT:      -4.7     30.915     32.375
REMARK  1 active torsions:
REMARK  status: ('A' for Active; 'I' for Inactive)
REMARK    1  A    between atoms: C_3  and  C_7 
ROOT
ATOM      1  N   LIG d   1       1.430  -5.419  -8.166  0.00  0.00    -0.067 N 
ATOM      2  C   LIG d   1       2.903  -5.800  -8.200  0.00  0.00     0.222 C 
ATOM      3  C   LIG d   1       2.998  -6.542  -9.537  0.00  0.00     0.040 C 
ATOM      4  C   LIG d   1       1.923  -5.947 -10.444  0.00  0.00     0.030 C 
ATOM      5  C   LIG d   1       1.056  -5.052  -9.574  0.00  0.00     0.235 C 
ATOM      6  C   LIG d   1       1.015  -4.412  -7.141  0.00  0.00     0.270 C 
ATOM      7  H   LIG d   1       0.921  -6.283  -7.941  0.00  0.00     0.280 HD
ENDROOT
BRANCH   2   8
ATOM      8  C   LIG d   1       3.869  -4.658  -8.009  0.00  0.00    -0.010 A 
ATOM      9  C   LIG d   1       4.322  -4.327  -6.722  0.00  0.00     0.012 A 
ATOM     10  C   LIG d   1       5.191  -3.255  -6.534  0.00  0.00     0.020 A 
ATOM     11  C   LIG d   1       5.583  -2.530  -7.643  0.00  0.00     0.116 A 
ATOM     12  N   LIG d   1       5.167  -2.811  -8.895  0.00  0.00    -0.273 NA
ATOM     13  C   LIG d   1       4.339  -3.865  -9.053  0.00  0.00     0.125 A 
ENDBRANCH   2   8
TORSDOF 1
ENDMDL
MODEL 6
REMARK VINA RESULT:      -4.6     19.115     20.492
REMARK  1 active torsions:
REMARK  status: ('A' for Active; 'I' for Inactive)
REMARK    1  A    between atoms: C_3  and  C_7 
ROOT
ATOM      1  N   LIG d   1       0.010  10.744  -1.612  0.00  0.00    -0.067 N 
ATOM      2  C   LIG d   1       1.304  10.071  -2.045  0.00  0.00     0.222 C 
ATOM      3  C   LIG d   1       1.253   8.765  -1.247  0.00  0.00     0.040 C 
ATOM      4  C   LIG d   1      -0.224   8.435  -1.043  0.00  0.00     0.030 C 
ATOM      5  C   LIG d   1      -1.015   9.652  -1.493  0.00  0.00     0.235 C 
ATOM      6  C   LIG d   1      -0.442  11.922  -2.416  0.00  0.00     0.270 C 
ATOM      7  H   LIG d   1       0.179  11.095  -0.661  0.00  0.00     0.280 HD
ENDROOT
BRANCH   2   8
ATOM      8  C   LIG d   1       1.490   9.929  -3.535  0.00  0.00    -0.010 A 
ATOM      9  C   LIG d   1       1.092   8.749  -4.184  0.00  0.00     0.012 A 
ATOM     10  C   LIG d   1       1.287   8.598  -5.555  0.00  0.00     0.020 A 
ATOM     11  C   LIG d   1       1.887   9.633  -6.246  0.00  0.00     0.116 A 
ATOM     12  N   LIG d   1       2.289  10.780  -5.660  0.00  0.00    -0.273 NA
ATOM     13  C   LIG d   1       2.073  10.908  -4.334  0.00  0.00     0.125 A 
ENDBRANCH   2   8
TORSDOF 1
ENDMDL
MODEL 7
REMARK VINA RESULT:      -4.5     40.868     43.101
REMARK  1 active torsions:
REMARK  status: ('A' for Active; 'I' for Inactive)
REMARK    1  A    between atoms: C_3  and  C_7 
ROOT
ATOM      1  N   LIG d   1       5.019   0.432  20.312  0.00  0.00    -0.067 N 
ATOM      2  C   LIG d   1       6.039  -0.676  20.088  0.00  0.00     0.222 C 
ATOM      3  C   LIG d   1       6.155  -0.681  18.561  0.00  0.00     0.040 C 
ATOM      4  C   LIG d   1       5.853   0.742  18.094  0.00  0.00     0.030 C 
ATOM      5  C   LIG d   1       5.326   1.500  19.301  0.00  0.00     0.235 C 
ATOM      6  C   LIG d   1       4.869   0.940  21.711  0.00  0.00     0.270 C 
ATOM      7  H   LIG d   1       4.108   0.033  20.053  0.00  0.00     0.280 HD
ENDROOT
BRANCH   2   8
ATOM      8  C   LIG d   1       7.332  -0.525  20.849  0.00  0.00    -0.010 A 
ATOM      9  C   LIG d   1       7.574  -1.310  21.987  0.00  0.00     0.012 A 
ATOM     10  C   LIG d   1       8.754  -1.156  22.712  0.00  0.00     0.020 A 
ATOM     11  C   LIG d   1       9.665  -0.210  22.283  0.00  0.00     0.116 A 
ATOM     12  N   LIG d   1       9.469   0.568  21.198  0.00  0.00    -0.273 NA
ATOM     13  C   LIG d   1       8.326   0.387  20.504  0.00  0.00     0.125 A 
ENDBRANCH   2   8
TORSDOF 1
ENDMDL
MODEL 8
REMARK VINA RESULT:      -4.5      1.802      2.724
REMARK  1 active torsions:
REMARK  status: ('A' for Active; 'I' for Inactive)
REMARK    1  A    between atoms: C_3  and  C_7 
ROOT
ATOM      1  N   LIG d   1       6.608  28.062 -11.334  0.00  0.00    -0.067 N 
ATOM      2  C   LIG d   1       7.745  27.640 -12.254  0.00  0.00     0.222 C 
ATOM      3  C   LIG d   1       7.853  26.145 -11.943  0.00  0.00     0.040 C 
ATOM      4  C   LIG d   1       6.460  25.684 -11.520  0.00  0.00     0.030 C 
ATOM      5  C   LIG d   1       5.614  26.934 -11.346  0.00  0.00     0.235 C 
ATOM      6  C   LIG d   1       6.006  29.409 -11.576  0.00  0.00     0.270 C 
ATOM      7  H   LIG d   1       7.008  28.092 -10.388  0.00  0.00     0.280 HD
ENDROOT
BRANCH   2   8
ATOM      8  C   LIG d   1       7.565  28.001 -13.707  0.00  0.00    -0.010 A 
ATOM      9  C   LIG d   1       8.279  29.078 -14.258  0.00  0.00     0.012 A 
ATOM     10  C   LIG d   1       8.096  29.436 -15.592  0.00  0.00     0.020 A 
ATOM     11  C   LIG d   1       7.194  28.710 -16.345  0.00  0.00     0.116 A 
ATOM     12  N   LIG d   1       6.485  27.673 -15.853  0.00  0.00    -0.273 NA
ATOM     13  C   LIG d   1       6.692  27.335 -14.563  0.00  0.00     0.125 A 
ENDBRANCH   2   8
TORSDOF 1
ENDMDL
MODEL 9
REMARK VINA RESULT:      -4.4     31.474     32.877
REMARK  1 active torsions:
REMARK  status: ('A' for Active; 'I' for Inactive)
REMARK    1  A    between atoms: C_3  and  C_7 
ROOT
ATOM      1  N   LIG d   1      15.075  -3.203  -6.912  0.00  0.00    -0.067 N 
ATOM      2  C   LIG d   1      14.279  -3.091  -5.619  0.00  0.00     0.222 C 
ATOM      3  C   LIG d   1      13.521  -4.421  -5.610  0.00  0.00     0.040 C 
ATOM      4  C   LIG d   1      14.389  -5.426  -6.364  0.00  0.00     0.030 C 
ATOM      5  C   LIG d   1      15.512  -4.637  -7.016  0.00  0.00     0.235 C 
ATOM      6  C   LIG d   1      16.176  -2.212  -7.117  0.00  0.00     0.270 C 
ATOM      7  H   LIG d   1      14.401  -3.044  -7.672  0.00  0.00     0.280 HD
ENDROOT
BRANCH   2   8
ATOM      8  C   LIG d   1      15.092  -2.785  -4.387  0.00  0.00    -0.010 A 
ATOM      9  C   LIG d   1      15.917  -3.772  -3.825  0.00  0.00     0.012 A 
ATOM     10  C   LIG d   1      16.648  -3.506  -2.669  0.00  0.00     0.020 A 
ATOM     11  C   LIG d   1      16.530  -2.255  -2.095  0.00  0.00     0.116 A 
ATOM     12  N   LIG d   1      15.744  -1.281  -2.599  0.00  0.00    -0.273 NA
ATOM     13  C   LIG d   1      15.059  -1.558  -3.729  0.00  0.00     0.125 A 
ENDBRANCH   2   8
TORSDOF 1
ENDMDL
