MODEL 1
REMARK minimizedAffinity -6.92381048REMARK CNNscore 0.688947022REMARK CNNaffinity 4.76758623REMARK  11 active torsions:
REMARK  status: ('A' for Active; 'I' for Inactive)
REMARK    1  A    between atoms: O_2  and  C_17 
REMARK    2  A    between atoms: O_2  and  C_19 
REMARK    3  A    between atoms: O_3  and  C_13 
REMARK    4  A    between atoms: O_4  and  C_14 
REMARK    5  A    between atoms: O_5  and  C_15 
REMARK    6  A    between atoms: O_6  and  C_18 
REMARK    7  A    between atoms: O_8  and  C_21 
REMARK    8  A    between atoms: O_11  and  C_30 
REMARK    9  A    between atoms: O_12  and  C_33 
REMARK   10  A    between atoms: C_16  and  C_18 
REMARK   11  A    between atoms: C_22  and  C_25 
ROOT
ATOM      1  C   UNK d   1      23.965   9.629  10.944  0.00  0.00     0.106 A 
ATOM      2  C   UNK d   1      24.217   8.482  10.166  0.00  0.00     0.054 A 
ATOM      3  C   UNK d   1      24.624   9.783  12.176  0.00  0.00     0.101 A 
ATOM      4  C   UNK d   1      25.067   7.449  10.604  0.00  0.00     0.001 A 
ATOM      5  C   UNK d   1      25.487   8.778  12.614  0.00  0.00     0.040 A 
ATOM      6  C   UNK d   1      25.696   7.628  11.844  0.00  0.00     0.017 A 
ENDROOT
BRANCH   1   7
ATOM      7  O   UNK d   1      23.095  10.637  10.590  0.00  0.00    -0.315 OA
BRANCH   7   8
ATOM      8  C   UNK d   1      23.489  11.525   9.539  0.00  0.00     0.299 C 
ATOM      9  O   UNK d   1      23.430  12.875  10.007  0.00  0.00    -0.340 OA
ATOM     10  C   UNK d   1      23.863  13.838   9.056  0.00  0.00     0.253 C 
ATOM     11  C   UNK d   1      22.983  13.789   7.805  0.00  0.00     0.189 C 
ATOM     12  C   UNK d   1      22.938  12.364   7.253  0.00  0.00     0.183 C 
ATOM     13  C   UNK d   1      22.540  11.351   8.333  0.00  0.00     0.205 C 
BRANCH  10  14
ATOM     14  C   UNK d   1      23.820  15.256   9.653  0.00  0.00     0.172 C 
ATOM     15  O   UNK d   1      23.093  15.616  10.565  0.00  0.00    -0.648 OA
BRANCH  14  16
ATOM     16  O   UNK d   1      24.733  16.099   9.101  0.00  0.00    -0.774 OA
ATOM     17  H   UNK d   1      25.185  15.704   8.318  0.00  0.00     0.167 HD
ENDBRANCH  14  16
ENDBRANCH  10  14
BRANCH  11  18
ATOM     18  O   UNK d   1      23.523  14.660   6.791  0.00  0.00    -0.390 OA
ATOM     19  H   UNK d   1      22.858  14.668   6.071  0.00  0.00     0.210 HD
ENDBRANCH  11  18
BRANCH  12  20
ATOM     20  O   UNK d   1      22.010  12.306   6.157  0.00  0.00    -0.390 OA
ATOM     21  H   UNK d   1      22.527  12.401   5.336  0.00  0.00     0.210 HD
ENDBRANCH  12  20
BRANCH  13  22
ATOM     22  O   UNK d   1      22.650  10.039   7.755  0.00  0.00    -0.388 OA
ATOM     23  H   UNK d   1      21.988  10.011   7.038  0.00  0.00     0.210 HD
ENDBRANCH  13  22
ENDBRANCH   7   8
ENDBRANCH   1   7
BRANCH   3  24
ATOM     24  O   UNK d   1      24.361  10.931  12.882  0.00  0.00    -0.353 OA
ATOM     25  C   UNK d   1      23.527  10.813  14.028  0.00  0.00     0.210 C 
ENDBRANCH   3  24
BRANCH   4  26
ATOM     26  C   UNK d   1      25.260   6.218   9.778  0.00  0.00     0.090 A 
ATOM     27  O   UNK d   1      25.942   6.420   8.583  0.00  0.00    -0.309 OA
ATOM     28  C   UNK d   1      26.165   5.349   7.752  0.00  0.00     0.095 A 
ATOM     29  C   UNK d   1      25.725   4.053   8.029  0.00  0.00     0.081 A 
ATOM     30  C   UNK d   1      26.872   5.613   6.576  0.00  0.00     0.075 A 
ATOM     31  C   UNK d   1      24.983   3.839   9.286  0.00  0.00     0.190 A 
ATOM     32  C   UNK d   1      26.000   3.021   7.119  0.00  0.00     0.085 A 
ATOM     33  O   UNK d   1      24.518   2.766   9.649  0.00  0.00    -0.287 OA
ATOM     34  C   UNK d   1      24.794   5.017  10.148  0.00  0.00     0.094 A 
ATOM     35  C   UNK d   1      26.707   3.282   5.943  0.00  0.00     0.074 A 
ATOM     36  C   UNK d   1      27.136   4.581   5.683  0.00  0.00     0.071 A 
BRANCH  32  37
ATOM     37  O   UNK d   1      25.581   1.744   7.365  0.00  0.00    -0.360 OA
ATOM     38  H   UNK d   1      25.865   1.142   6.661  0.00  0.00     0.217 HD
ENDBRANCH  32  37
BRANCH  36  39
ATOM     39  O   UNK d   1      27.827   4.885   4.548  0.00  0.00    -0.361 OA
ATOM     40  H   UNK d   1      27.972   4.073   4.033  0.00  0.00     0.217 HD
ENDBRANCH  36  39
ENDBRANCH   4  26
TORSDOF 11
ENDMDL
MODEL 2
REMARK minimizedAffinity -8.07119083REMARK CNNscore 0.678937376REMARK CNNaffinity 5.12376928REMARK  11 active torsions:
REMARK  status: ('A' for Active; 'I' for Inactive)
REMARK    1  A    between atoms: O_2  and  C_17 
REMARK    2  A    between atoms: O_2  and  C_19 
REMARK    3  A    between atoms: O_3  and  C_13 
REMARK    4  A    between atoms: O_4  and  C_14 
REMARK    5  A    between atoms: O_5  and  C_15 
REMARK    6  A    between atoms: O_6  and  C_18 
REMARK    7  A    between atoms: O_8  and  C_21 
REMARK    8  A    between atoms: O_11  and  C_30 
REMARK    9  A    between atoms: O_12  and  C_33 
REMARK   10  A    between atoms: C_16  and  C_18 
REMARK   11  A    between atoms: C_22  and  C_25 
ROOT
ATOM      1  C   UNK d   1      20.304   4.317  -6.142  0.00  0.00     0.106 A 
ATOM      2  C   UNK d   1      19.551   3.127  -6.172  0.00  0.00     0.054 A 
ATOM      3  C   UNK d   1      19.645   5.543  -5.942  0.00  0.00     0.101 A 
ATOM      4  C   UNK d   1      18.147   3.123  -6.062  0.00  0.00     0.001 A 
ATOM      5  C   UNK d   1      18.256   5.553  -5.809  0.00  0.00     0.040 A 
ATOM      6  C   UNK d   1      17.522   4.364  -5.878  0.00  0.00     0.017 A 
ENDROOT
BRANCH   1   7
ATOM      7  O   UNK d   1      21.670   4.381  -6.308  0.00  0.00    -0.315 OA
BRANCH   7   8
ATOM      8  C   UNK d   1      22.498   3.868  -5.260  0.00  0.00     0.299 C 
ATOM      9  O   UNK d   1      22.889   4.936  -4.394  0.00  0.00    -0.340 OA
ATOM     10  C   UNK d   1      23.667   4.522  -3.278  0.00  0.00     0.253 C 
ATOM     11  C   UNK d   1      24.966   3.862  -3.745  0.00  0.00     0.189 C 
ATOM     12  C   UNK d   1      24.655   2.731  -4.726  0.00  0.00     0.183 C 
ATOM     13  C   UNK d   1      23.753   3.205  -5.870  0.00  0.00     0.205 C 
BRANCH  10  14
ATOM     14  C   UNK d   1      24.001   5.718  -2.369  0.00  0.00     0.172 C 
ATOM     15  O   UNK d   1      25.096   6.250  -2.278  0.00  0.00    -0.648 OA
BRANCH  14  16
ATOM     16  O   UNK d   1      22.925   6.192  -1.687  0.00  0.00    -0.774 OA
ATOM     17  H   UNK d   1      22.133   5.612  -1.785  0.00  0.00     0.167 HD
ENDBRANCH  14  16
ENDBRANCH  10  14
BRANCH  11  18
ATOM     18  O   UNK d   1      25.671   3.313  -2.614  0.00  0.00    -0.390 OA
ATOM     19  H   UNK d   1      26.536   3.011  -2.966  0.00  0.00     0.210 HD
ENDBRANCH  11  18
BRANCH  12  20
ATOM     20  O   UNK d   1      25.884   2.205  -5.253  0.00  0.00    -0.390 OA
ATOM     21  H   UNK d   1      26.113   1.420  -4.721  0.00  0.00     0.210 HD
ENDBRANCH  12  20
BRANCH  13  22
ATOM     22  O   UNK d   1      23.414   2.053  -6.659  0.00  0.00    -0.388 OA
ATOM     23  H   UNK d   1      24.257   1.734  -7.034  0.00  0.00     0.210 HD
ENDBRANCH  13  22
ENDBRANCH   7   8
ENDBRANCH   1   7
BRANCH   3  24
ATOM     24  O   UNK d   1      20.429   6.669  -5.898  0.00  0.00    -0.353 OA
ATOM     25  C   UNK d   1      20.401   7.433  -4.697  0.00  0.00     0.210 C 
ENDBRANCH   3  24
BRANCH   4  26
ATOM     26  C   UNK d   1      17.379   1.845  -6.161  0.00  0.00     0.090 A 
ATOM     27  O   UNK d   1      16.130   1.868  -5.548  0.00  0.00    -0.309 OA
ATOM     28  C   UNK d   1      15.349   0.738  -5.582  0.00  0.00     0.095 A 
ATOM     29  C   UNK d   1      15.746  -0.457  -6.187  0.00  0.00     0.081 A 
ATOM     30  C   UNK d   1      14.099   0.830  -4.965  0.00  0.00     0.075 A 
ATOM     31  C   UNK d   1      17.078  -0.491  -6.820  0.00  0.00     0.190 A 
ATOM     32  C   UNK d   1      14.879  -1.560  -6.171  0.00  0.00     0.085 A 
ATOM     33  O   UNK d   1      17.567  -1.471  -7.366  0.00  0.00    -0.287 OA
ATOM     34  C   UNK d   1      17.861   0.755  -6.774  0.00  0.00     0.094 A 
ATOM     35  C   UNK d   1      13.628  -1.471  -5.555  0.00  0.00     0.074 A 
ATOM     36  C   UNK d   1      13.251  -0.272  -4.956  0.00  0.00     0.071 A 
BRANCH  32  37
ATOM     37  O   UNK d   1      15.242  -2.740  -6.755  0.00  0.00    -0.360 OA
ATOM     38  H   UNK d   1      14.534  -3.397  -6.684  0.00  0.00     0.217 HD
ENDBRANCH  32  37
BRANCH  36  39
ATOM     39  O   UNK d   1      12.042  -0.138  -4.341  0.00  0.00    -0.361 OA
ATOM     40  H   UNK d   1      11.539  -0.964  -4.437  0.00  0.00     0.217 HD
ENDBRANCH  36  39
ENDBRANCH   4  26
TORSDOF 11
ENDMDL
MODEL 3
REMARK minimizedAffinity -7.50144243REMARK CNNscore 0.469084412REMARK CNNaffinity 5.03613949REMARK  11 active torsions:
REMARK  status: ('A' for Active; 'I' for Inactive)
REMARK    1  A    between atoms: O_2  and  C_17 
REMARK    2  A    between atoms: O_2  and  C_19 
REMARK    3  A    between atoms: O_3  and  C_13 
REMARK    4  A    between atoms: O_4  and  C_14 
REMARK    5  A    between atoms: O_5  and  C_15 
REMARK    6  A    between atoms: O_6  and  C_18 
REMARK    7  A    between atoms: O_8  and  C_21 
REMARK    8  A    between atoms: O_11  and  C_30 
REMARK    9  A    between atoms: O_12  and  C_33 
REMARK   10  A    between atoms: C_16  and  C_18 
REMARK   11  A    between atoms: C_22  and  C_25 
ROOT
ATOM      1  C   UNK d   1      20.028   3.614  -6.335  0.00  0.00     0.106 A 
ATOM      2  C   UNK d   1      19.061   2.594  -6.242  0.00  0.00     0.054 A 
ATOM      3  C   UNK d   1      19.639   4.950  -6.142  0.00  0.00     0.101 A 
ATOM      4  C   UNK d   1      17.699   2.869  -6.016  0.00  0.00     0.001 A 
ATOM      5  C   UNK d   1      18.296   5.238  -5.894  0.00  0.00     0.040 A 
ATOM      6  C   UNK d   1      17.344   4.214  -5.843  0.00  0.00     0.017 A 
ENDROOT
BRANCH   1   7
ATOM      7  O   UNK d   1      21.360   3.403  -6.617  0.00  0.00    -0.315 OA
BRANCH   7   8
ATOM      8  C   UNK d   1      22.184   2.847  -5.588  0.00  0.00     0.299 C 
ATOM      9  O   UNK d   1      22.999   3.875  -5.021  0.00  0.00    -0.340 OA
ATOM     10  C   UNK d   1      23.815   3.439  -3.941  0.00  0.00     0.253 C 
ATOM     11  C   UNK d   1      24.781   2.347  -4.406  0.00  0.00     0.189 C 
ATOM     12  C   UNK d   1      24.004   1.215  -5.080  0.00  0.00     0.183 C 
ATOM     13  C   UNK d   1      23.082   1.741  -6.186  0.00  0.00     0.205 C 
BRANCH  10  14
ATOM     14  C   UNK d   1      24.619   4.612  -3.353  0.00  0.00     0.172 C 
ATOM     15  O   UNK d   1      25.141   4.626  -2.250  0.00  0.00    -0.648 OA
BRANCH  14  16
ATOM     16  O   UNK d   1      24.755   5.656  -4.214  0.00  0.00    -0.774 OA
ATOM     17  H   UNK d   1      24.206   5.547  -5.027  0.00  0.00     0.167 HD
ENDBRANCH  14  16
ENDBRANCH  10  14
BRANCH  11  18
ATOM     18  O   UNK d   1      25.493   1.808  -3.274  0.00  0.00    -0.390 OA
ATOM     19  H   UNK d   1      26.166   1.203  -3.653  0.00  0.00     0.210 HD
ENDBRANCH  11  18
BRANCH  12  20
ATOM     20  O   UNK d   1      24.930   0.259  -5.624  0.00  0.00    -0.390 OA
ATOM     21  H   UNK d   1      25.023  -0.456  -4.968  0.00  0.00     0.210 HD
ENDBRANCH  12  20
BRANCH  13  22
ATOM     22  O   UNK d   1      22.308   0.630  -6.667  0.00  0.00    -0.388 OA
ATOM     23  H   UNK d   1      22.951   0.012  -7.062  0.00  0.00     0.210 HD
ENDBRANCH  13  22
ENDBRANCH   7   8
ENDBRANCH   1   7
BRANCH   3  24
ATOM     24  O   UNK d   1      20.626   5.902  -6.218  0.00  0.00    -0.353 OA
ATOM     25  C   UNK d   1      20.829   6.721  -5.073  0.00  0.00     0.210 C 
ENDBRANCH   3  24
BRANCH   4  26
ATOM     26  C   UNK d   1      16.693   1.764  -5.987  0.00  0.00     0.090 A 
ATOM     27  O   UNK d   1      17.004   0.673  -6.792  0.00  0.00    -0.309 OA
ATOM     28  C   UNK d   1      16.137  -0.393  -6.837  0.00  0.00     0.095 A 
ATOM     29  C   UNK d   1      14.936  -0.440  -6.125  0.00  0.00     0.081 A 
ATOM     30  C   UNK d   1      16.515  -1.465  -7.649  0.00  0.00     0.075 A 
ATOM     31  C   UNK d   1      14.593   0.724  -5.286  0.00  0.00     0.190 A 
ATOM     32  C   UNK d   1      14.115  -1.573  -6.233  0.00  0.00     0.085 A 
ATOM     33  O   UNK d   1      13.567   0.832  -4.628  0.00  0.00    -0.287 OA
ATOM     34  C   UNK d   1      15.569   1.825  -5.260  0.00  0.00     0.094 A 
ATOM     35  C   UNK d   1      14.490  -2.647  -7.045  0.00  0.00     0.074 A 
ATOM     36  C   UNK d   1      15.690  -2.580  -7.747  0.00  0.00     0.071 A 
BRANCH  32  37
ATOM     37  O   UNK d   1      12.935  -1.646  -5.549  0.00  0.00    -0.360 OA
ATOM     38  H   UNK d   1      12.493  -2.494  -5.705  0.00  0.00     0.217 HD
ENDBRANCH  32  37
BRANCH  36  39
ATOM     39  O   UNK d   1      16.097  -3.601  -8.553  0.00  0.00    -0.361 OA
ATOM     40  H   UNK d   1      15.451  -4.327  -8.503  0.00  0.00     0.217 HD
ENDBRANCH  36  39
ENDBRANCH   4  26
TORSDOF 11
ENDMDL
MODEL 4
REMARK minimizedAffinity -8.98877811REMARK CNNscore 0.354102612REMARK CNNaffinity 5.19587135REMARK  11 active torsions:
REMARK  status: ('A' for Active; 'I' for Inactive)
REMARK    1  A    between atoms: O_2  and  C_17 
REMARK    2  A    between atoms: O_2  and  C_19 
REMARK    3  A    between atoms: O_3  and  C_13 
REMARK    4  A    between atoms: O_4  and  C_14 
REMARK    5  A    between atoms: O_5  and  C_15 
REMARK    6  A    between atoms: O_6  and  C_18 
REMARK    7  A    between atoms: O_8  and  C_21 
REMARK    8  A    between atoms: O_11  and  C_30 
REMARK    9  A    between atoms: O_12  and  C_33 
REMARK   10  A    between atoms: C_16  and  C_18 
REMARK   11  A    between atoms: C_22  and  C_25 
ROOT
ATOM      1  C   UNK d   1      19.235  -0.238  -7.406  0.00  0.00     0.106 A 
ATOM      2  C   UNK d   1      19.466   0.989  -6.754  0.00  0.00     0.054 A 
ATOM      3  C   UNK d   1      19.998  -0.569  -8.539  0.00  0.00     0.101 A 
ATOM      4  C   UNK d   1      20.401   1.928  -7.230  0.00  0.00     0.001 A 
ATOM      5  C   UNK d   1      20.946   0.342  -9.010  0.00  0.00     0.040 A 
ATOM      6  C   UNK d   1      21.134   1.572  -8.370  0.00  0.00     0.017 A 
ENDROOT
BRANCH   1   7
ATOM      7  O   UNK d   1      18.290  -1.162  -7.019  0.00  0.00    -0.315 OA
BRANCH   7   8
ATOM      8  C   UNK d   1      16.924  -0.740  -6.962  0.00  0.00     0.299 C 
ATOM      9  O   UNK d   1      16.504  -0.667  -5.597  0.00  0.00    -0.340 OA
ATOM     10  C   UNK d   1      15.174  -0.195  -5.424  0.00  0.00     0.253 C 
ATOM     11  C   UNK d   1      14.179  -1.128  -6.119  0.00  0.00     0.189 C 
ATOM     12  C   UNK d   1      14.576  -1.315  -7.584  0.00  0.00     0.183 C 
ATOM     13  C   UNK d   1      16.038  -1.750  -7.725  0.00  0.00     0.205 C 
BRANCH  10  14
ATOM     14  C   UNK d   1      14.818  -0.094  -3.930  0.00  0.00     0.172 C 
ATOM     15  O   UNK d   1      15.260  -0.814  -3.050  0.00  0.00    -0.648 OA
BRANCH  14  16
ATOM     16  O   UNK d   1      13.980   0.938  -3.646  0.00  0.00    -0.774 OA
ATOM     17  H   UNK d   1      13.632   1.375  -4.460  0.00  0.00     0.167 HD
ENDBRANCH  14  16
ENDBRANCH  10  14
BRANCH  11  18
ATOM     18  O   UNK d   1      12.856  -0.559  -6.067  0.00  0.00    -0.390 OA
ATOM     19  H   UNK d   1      12.260  -1.252  -6.424  0.00  0.00     0.210 HD
ENDBRANCH  11  18
BRANCH  12  20
ATOM     20  O   UNK d   1      13.711  -2.290  -8.191  0.00  0.00    -0.390 OA
ATOM     21  H   UNK d   1      13.001  -1.801  -8.647  0.00  0.00     0.210 HD
ENDBRANCH  12  20
BRANCH  13  22
ATOM     22  O   UNK d   1      16.349  -1.775  -9.128  0.00  0.00    -0.388 OA
ATOM     23  H   UNK d   1      15.776  -2.466  -9.512  0.00  0.00     0.210 HD
ENDBRANCH  13  22
ENDBRANCH   7   8
ENDBRANCH   1   7
BRANCH   3  24
ATOM     24  O   UNK d   1      19.750  -1.787  -9.121  0.00  0.00    -0.353 OA
ATOM     25  C   UNK d   1      20.877  -2.594  -9.447  0.00  0.00     0.210 C 
ENDBRANCH   3  24
BRANCH   4  26
ATOM     26  C   UNK d   1      20.572   3.246  -6.546  0.00  0.00     0.090 A 
ATOM     27  O   UNK d   1      19.388   3.838  -6.119  0.00  0.00    -0.309 OA
ATOM     28  C   UNK d   1      19.441   5.055  -5.482  0.00  0.00     0.095 A 
ATOM     29  C   UNK d   1      20.628   5.753  -5.251  0.00  0.00     0.081 A 
ATOM     30  C   UNK d   1      18.220   5.588  -5.062  0.00  0.00     0.075 A 
ATOM     31  C   UNK d   1      21.884   5.138  -5.721  0.00  0.00     0.190 A 
ATOM     32  C   UNK d   1      20.584   6.991  -4.593  0.00  0.00     0.085 A 
ATOM     33  O   UNK d   1      22.994   5.643  -5.609  0.00  0.00    -0.287 OA
ATOM     34  C   UNK d   1      21.769   3.824  -6.375  0.00  0.00     0.094 A 
ATOM     35  C   UNK d   1      19.364   7.527  -4.170  0.00  0.00     0.074 A 
ATOM     36  C   UNK d   1      18.191   6.817  -4.412  0.00  0.00     0.071 A 
BRANCH  32  37
ATOM     37  O   UNK d   1      21.729   7.696  -4.353  0.00  0.00    -0.360 OA
ATOM     38  H   UNK d   1      21.541   8.515  -3.872  0.00  0.00     0.217 HD
ENDBRANCH  32  37
BRANCH  36  39
ATOM     39  O   UNK d   1      16.978   7.299  -4.020  0.00  0.00    -0.361 OA
ATOM     40  H   UNK d   1      17.103   8.142  -3.551  0.00  0.00     0.217 HD
ENDBRANCH  36  39
ENDBRANCH   4  26
TORSDOF 11
ENDMDL
MODEL 5
REMARK minimizedAffinity -6.52445459REMARK CNNscore 0.327774316REMARK CNNaffinity 4.20753241REMARK  11 active torsions:
REMARK  status: ('A' for Active; 'I' for Inactive)
REMARK    1  A    between atoms: O_2  and  C_17 
REMARK    2  A    between atoms: O_2  and  C_19 
REMARK    3  A    between atoms: O_3  and  C_13 
REMARK    4  A    between atoms: O_4  and  C_14 
REMARK    5  A    between atoms: O_5  and  C_15 
REMARK    6  A    between atoms: O_6  and  C_18 
REMARK    7  A    between atoms: O_8  and  C_21 
REMARK    8  A    between atoms: O_11  and  C_30 
REMARK    9  A    between atoms: O_12  and  C_33 
REMARK   10  A    between atoms: C_16  and  C_18 
REMARK   11  A    between atoms: C_22  and  C_25 
ROOT
ATOM      1  C   UNK d   1      -3.767  21.930 -10.887  0.00  0.00     0.106 A 
ATOM      2  C   UNK d   1      -3.346  22.030 -12.227  0.00  0.00     0.054 A 
ATOM      3  C   UNK d   1      -4.258  23.074 -10.233  0.00  0.00     0.101 A 
ATOM      4  C   UNK d   1      -3.346  23.252 -12.926  0.00  0.00     0.001 A 
ATOM      5  C   UNK d   1      -4.286  24.288 -10.920  0.00  0.00     0.040 A 
ATOM      6  C   UNK d   1      -3.829  24.375 -12.239  0.00  0.00     0.017 A 
ENDROOT
BRANCH   1   7
ATOM      7  O   UNK d   1      -3.727  20.773 -10.140  0.00  0.00    -0.315 OA
BRANCH   7   8
ATOM      8  C   UNK d   1      -4.494  19.655 -10.594  0.00  0.00     0.299 C 
ATOM      9  O   UNK d   1      -5.516  19.357  -9.639  0.00  0.00    -0.340 OA
ATOM     10  C   UNK d   1      -6.380  18.296 -10.025  0.00  0.00     0.253 C 
ATOM     11  C   UNK d   1      -5.587  17.000 -10.208  0.00  0.00     0.189 C 
ATOM     12  C   UNK d   1      -4.429  17.229 -11.180  0.00  0.00     0.183 C 
ATOM     13  C   UNK d   1      -3.570  18.429 -10.765  0.00  0.00     0.205 C 
BRANCH  10  14
ATOM     14  C   UNK d   1      -7.481  18.075  -8.973  0.00  0.00     0.172 C 
ATOM     15  O   UNK d   1      -7.822  16.991  -8.526  0.00  0.00    -0.648 OA
BRANCH  14  16
ATOM     16  O   UNK d   1      -8.030  19.232  -8.518  0.00  0.00    -0.774 OA
ATOM     17  H   UNK d   1      -7.727  20.019  -9.030  0.00  0.00     0.167 HD
ENDBRANCH  14  16
ENDBRANCH  10  14
BRANCH  11  18
ATOM     18  O   UNK d   1      -6.444  15.973 -10.745  0.00  0.00    -0.390 OA
ATOM     19  H   UNK d   1      -5.909  15.151 -10.730  0.00  0.00     0.210 HD
ENDBRANCH  11  18
BRANCH  12  20
ATOM     20  O   UNK d   1      -3.619  16.043 -11.245  0.00  0.00    -0.390 OA
ATOM     21  H   UNK d   1      -3.916  15.534 -12.022  0.00  0.00     0.210 HD
ENDBRANCH  12  20
BRANCH  13  22
ATOM     22  O   UNK d   1      -2.595  18.640 -11.800  0.00  0.00    -0.388 OA
ATOM     23  H   UNK d   1      -2.036  17.839 -11.802  0.00  0.00     0.210 HD
ENDBRANCH  13  22
ENDBRANCH   7   8
ENDBRANCH   1   7
BRANCH   3  24
ATOM     24  O   UNK d   1      -4.678  22.916  -8.936  0.00  0.00    -0.353 OA
ATOM     25  C   UNK d   1      -5.357  24.012  -8.335  0.00  0.00     0.210 C 
ENDBRANCH   3  24
BRANCH   4  26
ATOM     26  C   UNK d   1      -2.832  23.329 -14.327  0.00  0.00     0.090 A 
ATOM     27  O   UNK d   1      -2.409  22.115 -14.859  0.00  0.00    -0.309 OA
ATOM     28  C   UNK d   1      -1.916  22.083 -16.142  0.00  0.00     0.095 A 
ATOM     29  C   UNK d   1      -1.794  23.216 -16.949  0.00  0.00     0.081 A 
ATOM     30  C   UNK d   1      -1.524  20.832 -16.624  0.00  0.00     0.075 A 
ATOM     31  C   UNK d   1      -2.223  24.509 -16.381  0.00  0.00     0.190 A 
ATOM     32  C   UNK d   1      -1.278  23.086 -18.247  0.00  0.00     0.085 A 
ATOM     33  O   UNK d   1      -2.153  25.584 -16.961  0.00  0.00    -0.287 OA
ATOM     34  C   UNK d   1      -2.764  24.478 -15.013  0.00  0.00     0.094 A 
ATOM     35  C   UNK d   1      -0.886  21.835 -18.733  0.00  0.00     0.074 A 
ATOM     36  C   UNK d   1      -1.014  20.719 -17.912  0.00  0.00     0.071 A 
BRANCH  32  37
ATOM     37  O   UNK d   1      -1.148  24.177 -19.059  0.00  0.00    -0.360 OA
ATOM     38  H   UNK d   1      -0.801  23.926 -19.928  0.00  0.00     0.217 HD
ENDBRANCH  32  37
BRANCH  36  39
ATOM     39  O   UNK d   1      -0.643  19.479 -18.341  0.00  0.00    -0.361 OA
ATOM     40  H   UNK d   1      -0.339  19.535 -19.263  0.00  0.00     0.217 HD
ENDBRANCH  36  39
ENDBRANCH   4  26
TORSDOF 11
ENDMDL
MODEL 6
REMARK minimizedAffinity -6.77399969REMARK CNNscore 0.275750458REMARK CNNaffinity 4.60033226REMARK  11 active torsions:
REMARK  status: ('A' for Active; 'I' for Inactive)
REMARK    1  A    between atoms: O_2  and  C_17 
REMARK    2  A    between atoms: O_2  and  C_19 
REMARK    3  A    between atoms: O_3  and  C_13 
REMARK    4  A    between atoms: O_4  and  C_14 
REMARK    5  A    between atoms: O_5  and  C_15 
REMARK    6  A    between atoms: O_6  and  C_18 
REMARK    7  A    between atoms: O_8  and  C_21 
REMARK    8  A    between atoms: O_11  and  C_30 
REMARK    9  A    between atoms: O_12  and  C_33 
REMARK   10  A    between atoms: C_16  and  C_18 
REMARK   11  A    between atoms: C_22  and  C_25 
ROOT
ATOM      1  C   UNK d   1      -3.683  -6.141  16.764  0.00  0.00     0.106 A 
ATOM      2  C   UNK d   1      -3.767  -4.976  15.978  0.00  0.00     0.054 A 
ATOM      3  C   UNK d   1      -3.643  -7.396  16.133  0.00  0.00     0.101 A 
ATOM      4  C   UNK d   1      -3.869  -5.023  14.574  0.00  0.00     0.001 A 
ATOM      5  C   UNK d   1      -3.720  -7.459  14.741  0.00  0.00     0.040 A 
ATOM      6  C   UNK d   1      -3.840  -6.292  13.978  0.00  0.00     0.017 A 
ENDROOT
BRANCH   1   7
ATOM      7  O   UNK d   1      -3.646  -6.152  18.142  0.00  0.00    -0.315 OA
BRANCH   7   8
ATOM      8  C   UNK d   1      -2.519  -5.553  18.787  0.00  0.00     0.299 C 
ATOM      9  O   UNK d   1      -1.597  -6.571  19.182  0.00  0.00    -0.340 OA
ATOM     10  C   UNK d   1      -0.406  -6.076  19.780  0.00  0.00     0.253 C 
ATOM     11  C   UNK d   1      -0.732  -5.290  21.052  0.00  0.00     0.189 C 
ATOM     12  C   UNK d   1      -1.760  -4.200  20.743  0.00  0.00     0.183 C 
ATOM     13  C   UNK d   1      -2.992  -4.769  20.031  0.00  0.00     0.205 C 
BRANCH  10  14
ATOM     14  C   UNK d   1       0.554  -7.228  20.125  0.00  0.00     0.172 C 
ATOM     15  O   UNK d   1       0.714  -7.703  21.238  0.00  0.00    -0.648 OA
BRANCH  14  16
ATOM     16  O   UNK d   1       1.198  -7.735  19.040  0.00  0.00    -0.774 OA
ATOM     17  H   UNK d   1       1.045  -7.197  18.227  0.00  0.00     0.167 HD
ENDBRANCH  14  16
ENDBRANCH  10  14
BRANCH  11  18
ATOM     18  O   UNK d   1       0.463  -4.666  21.562  0.00  0.00    -0.390 OA
ATOM     19  H   UNK d   1       0.208  -4.280  22.427  0.00  0.00     0.210 HD
ENDBRANCH  11  18
BRANCH  12  20
ATOM     20  O   UNK d   1      -2.151  -3.554  21.966  0.00  0.00    -0.390 OA
ATOM     21  H   UNK d   1      -1.609  -2.748  22.052  0.00  0.00     0.210 HD
ENDBRANCH  12  20
BRANCH  13  22
ATOM     22  O   UNK d   1      -3.833  -3.660  19.672  0.00  0.00    -0.388 OA
ATOM     23  H   UNK d   1      -4.115  -3.259  20.517  0.00  0.00     0.210 HD
ENDBRANCH  13  22
ENDBRANCH   7   8
ENDBRANCH   1   7
BRANCH   3  24
ATOM     24  O   UNK d   1      -3.536  -8.498  16.946  0.00  0.00    -0.353 OA
ATOM     25  C   UNK d   1      -3.541  -9.773  16.315  0.00  0.00     0.210 C 
ENDBRANCH   3  24
BRANCH   4  26
ATOM     26  C   UNK d   1      -4.020  -3.767  13.778  0.00  0.00     0.090 A 
ATOM     27  O   UNK d   1      -2.907  -2.933  13.792  0.00  0.00    -0.309 OA
ATOM     28  C   UNK d   1      -2.950  -1.750  13.092  0.00  0.00     0.095 A 
ATOM     29  C   UNK d   1      -4.067  -1.320  12.373  0.00  0.00     0.081 A 
ATOM     30  C   UNK d   1      -1.795  -0.966  13.130  0.00  0.00     0.075 A 
ATOM     31  C   UNK d   1      -5.257  -2.193  12.373  0.00  0.00     0.190 A 
ATOM     32  C   UNK d   1      -4.018  -0.096  11.688  0.00  0.00     0.085 A 
ATOM     33  O   UNK d   1      -6.312  -1.936  11.809  0.00  0.00    -0.287 OA
ATOM     34  C   UNK d   1      -5.145  -3.457  13.120  0.00  0.00     0.094 A 
ATOM     35  C   UNK d   1      -2.863   0.691  11.724  0.00  0.00     0.074 A 
ATOM     36  C   UNK d   1      -1.761   0.245  12.448  0.00  0.00     0.071 A 
BRANCH  32  37
ATOM     37  O   UNK d   1      -5.096   0.349  10.977  0.00  0.00    -0.360 OA
ATOM     38  H   UNK d   1      -4.903   1.193  10.543  0.00  0.00     0.217 HD
ENDBRANCH  32  37
BRANCH  36  39
ATOM     39  O   UNK d   1      -0.614   0.979  12.513  0.00  0.00    -0.361 OA
ATOM     40  H   UNK d   1      -0.712   1.779  11.969  0.00  0.00     0.217 HD
ENDBRANCH  36  39
ENDBRANCH   4  26
TORSDOF 11
ENDMDL
MODEL 7
REMARK minimizedAffinity -7.61444616REMARK CNNscore 0.264930487REMARK CNNaffinity 4.70344067REMARK  11 active torsions:
REMARK  status: ('A' for Active; 'I' for Inactive)
REMARK    1  A    between atoms: O_2  and  C_17 
REMARK    2  A    between atoms: O_2  and  C_19 
REMARK    3  A    between atoms: O_3  and  C_13 
REMARK    4  A    between atoms: O_4  and  C_14 
REMARK    5  A    between atoms: O_5  and  C_15 
REMARK    6  A    between atoms: O_6  and  C_18 
REMARK    7  A    between atoms: O_8  and  C_21 
REMARK    8  A    between atoms: O_11  and  C_30 
REMARK    9  A    between atoms: O_12  and  C_33 
REMARK   10  A    between atoms: C_16  and  C_18 
REMARK   11  A    between atoms: C_22  and  C_25 
ROOT
ATOM      1  C   UNK d   1      20.033   3.351  -6.034  0.00  0.00     0.106 A 
ATOM      2  C   UNK d   1      19.015   2.381  -5.949  0.00  0.00     0.054 A 
ATOM      3  C   UNK d   1      19.683   4.709  -6.129  0.00  0.00     0.101 A 
ATOM      4  C   UNK d   1      17.649   2.718  -6.012  0.00  0.00     0.001 A 
ATOM      5  C   UNK d   1      18.333   5.061  -6.170  0.00  0.00     0.040 A 
ATOM      6  C   UNK d   1      17.336   4.080  -6.122  0.00  0.00     0.017 A 
ENDROOT
BRANCH   1   7
ATOM      7  O   UNK d   1      21.381   3.069  -6.040  0.00  0.00    -0.315 OA
BRANCH   7   8
ATOM      8  C   UNK d   1      21.780   1.703  -6.191  0.00  0.00     0.299 C 
ATOM      9  O   UNK d   1      21.841   1.078  -4.906  0.00  0.00    -0.340 OA
ATOM     10  C   UNK d   1      22.169  -0.304  -4.948  0.00  0.00     0.253 C 
ATOM     11  C   UNK d   1      23.548  -0.509  -5.579  0.00  0.00     0.189 C 
ATOM     12  C   UNK d   1      23.603   0.174  -6.947  0.00  0.00     0.183 C 
ATOM     13  C   UNK d   1      23.168   1.641  -6.865  0.00  0.00     0.205 C 
BRANCH  10  14
ATOM     14  C   UNK d   1      22.161  -0.912  -3.534  0.00  0.00     0.172 C 
ATOM     15  O   UNK d   1      23.119  -0.957  -2.781  0.00  0.00    -0.648 OA
BRANCH  14  16
ATOM     16  O   UNK d   1      20.937  -1.366  -3.151  0.00  0.00    -0.774 OA
ATOM     17  H   UNK d   1      20.283  -1.351  -3.890  0.00  0.00     0.167 HD
ENDBRANCH  14  16
ENDBRANCH  10  14
BRANCH  11  18
ATOM     18  O   UNK d   1      23.802  -1.917  -5.755  0.00  0.00    -0.390 OA
ATOM     19  H   UNK d   1      24.734  -1.979  -6.053  0.00  0.00     0.210 HD
ENDBRANCH  11  18
BRANCH  12  20
ATOM     20  O   UNK d   1      24.938   0.083  -7.471  0.00  0.00    -0.390 OA
ATOM     21  H   UNK d   1      24.960  -0.687  -8.070  0.00  0.00     0.210 HD
ENDBRANCH  12  20
BRANCH  13  22
ATOM     22  O   UNK d   1      23.130   2.155  -8.207  0.00  0.00    -0.388 OA
ATOM     23  H   UNK d   1      24.051   2.116  -8.530  0.00  0.00     0.210 HD
ENDBRANCH  13  22
ENDBRANCH   7   8
ENDBRANCH   1   7
BRANCH   3  24
ATOM     24  O   UNK d   1      20.714   5.614  -6.184  0.00  0.00    -0.353 OA
ATOM     25  C   UNK d   1      20.505   6.875  -5.560  0.00  0.00     0.210 C 
ENDBRANCH   3  24
BRANCH   4  26
ATOM     26  C   UNK d   1      16.600   1.654  -5.983  0.00  0.00     0.090 A 
ATOM     27  O   UNK d   1      16.835   0.581  -6.837  0.00  0.00    -0.309 OA
ATOM     28  C   UNK d   1      15.924  -0.447  -6.884  0.00  0.00     0.095 A 
ATOM     29  C   UNK d   1      14.749  -0.471  -6.129  0.00  0.00     0.081 A 
ATOM     30  C   UNK d   1      16.225  -1.503  -7.747  0.00  0.00     0.075 A 
ATOM     31  C   UNK d   1      14.486   0.675  -5.237  0.00  0.00     0.190 A 
ATOM     32  C   UNK d   1      13.877  -1.565  -6.244  0.00  0.00     0.085 A 
ATOM     33  O   UNK d   1      13.490   0.801  -4.537  0.00  0.00    -0.287 OA
ATOM     34  C   UNK d   1      15.508   1.734  -5.211  0.00  0.00     0.094 A 
ATOM     35  C   UNK d   1      14.177  -2.624  -7.106  0.00  0.00     0.074 A 
ATOM     36  C   UNK d   1      15.352  -2.579  -7.851  0.00  0.00     0.071 A 
BRANCH  32  37
ATOM     37  O   UNK d   1      12.722  -1.615  -5.518  0.00  0.00    -0.360 OA
ATOM     38  H   UNK d   1      12.239  -2.438  -5.686  0.00  0.00     0.217 HD
ENDBRANCH  32  37
BRANCH  36  39
ATOM     39  O   UNK d   1      15.686  -3.587  -8.707  0.00  0.00    -0.361 OA
ATOM     40  H   UNK d   1      15.012  -4.287  -8.658  0.00  0.00     0.217 HD
ENDBRANCH  36  39
ENDBRANCH   4  26
TORSDOF 11
ENDMDL
MODEL 8
REMARK minimizedAffinity -6.93400192REMARK CNNscore 0.263461441REMARK CNNaffinity 4.42191935REMARK  11 active torsions:
REMARK  status: ('A' for Active; 'I' for Inactive)
REMARK    1  A    between atoms: O_2  and  C_17 
REMARK    2  A    between atoms: O_2  and  C_19 
REMARK    3  A    between atoms: O_3  and  C_13 
REMARK    4  A    between atoms: O_4  and  C_14 
REMARK    5  A    between atoms: O_5  and  C_15 
REMARK    6  A    between atoms: O_6  and  C_18 
REMARK    7  A    between atoms: O_8  and  C_21 
REMARK    8  A    between atoms: O_11  and  C_30 
REMARK    9  A    between atoms: O_12  and  C_33 
REMARK   10  A    between atoms: C_16  and  C_18 
REMARK   11  A    between atoms: C_22  and  C_25 
ROOT
ATOM      1  C   UNK d   1      12.430 -10.838 -13.985  0.00  0.00     0.106 A 
ATOM      2  C   UNK d   1      12.544  -9.551 -13.424  0.00  0.00     0.054 A 
ATOM      3  C   UNK d   1      11.222 -11.218 -14.595  0.00  0.00     0.101 A 
ATOM      4  C   UNK d   1      11.468  -8.643 -13.403  0.00  0.00     0.001 A 
ATOM      5  C   UNK d   1      10.154 -10.320 -14.603  0.00  0.00     0.040 A 
ATOM      6  C   UNK d   1      10.275  -9.060 -14.008  0.00  0.00     0.017 A 
ENDROOT
BRANCH   1   7
ATOM      7  O   UNK d   1      13.430 -11.786 -13.975  0.00  0.00    -0.315 OA
BRANCH   7   8
ATOM      8  C   UNK d   1      13.565 -12.607 -12.811  0.00  0.00     0.299 C 
ATOM      9  O   UNK d   1      14.625 -12.104 -11.992  0.00  0.00    -0.340 OA
ATOM     10  C   UNK d   1      14.803 -12.814 -10.774  0.00  0.00     0.253 C 
ATOM     11  C   UNK d   1      15.146 -14.280 -11.052  0.00  0.00     0.189 C 
ATOM     12  C   UNK d   1      14.091 -14.898 -11.971  0.00  0.00     0.183 C 
ATOM     13  C   UNK d   1      13.879 -14.058 -13.235  0.00  0.00     0.205 C 
BRANCH  10  14
ATOM     14  C   UNK d   1      15.922 -12.181  -9.929  0.00  0.00     0.172 C 
ATOM     15  O   UNK d   1      16.981 -11.757 -10.364  0.00  0.00    -0.648 OA
BRANCH  14  16
ATOM     16  O   UNK d   1      15.606 -12.075  -8.611  0.00  0.00    -0.774 OA
ATOM     17  H   UNK d   1      14.765 -12.540  -8.387  0.00  0.00     0.167 HD
ENDBRANCH  14  16
ENDBRANCH  10  14
BRANCH  11  18
ATOM     18  O   UNK d   1      15.173 -15.020  -9.816  0.00  0.00    -0.390 OA
ATOM     19  H   UNK d   1      15.507 -15.912 -10.052  0.00  0.00     0.210 HD
ENDBRANCH  11  18
BRANCH  12  20
ATOM     20  O   UNK d   1      14.492 -16.232 -12.326  0.00  0.00    -0.390 OA
ATOM     21  H   UNK d   1      14.037 -16.841 -11.715  0.00  0.00     0.210 HD
ENDBRANCH  12  20
BRANCH  13  22
ATOM     22  O   UNK d   1      12.789 -14.645 -13.965  0.00  0.00    -0.388 OA
ATOM     23  H   UNK d   1      13.096 -15.535 -14.226  0.00  0.00     0.210 HD
ENDBRANCH  13  22
ENDBRANCH   7   8
ENDBRANCH   1   7
BRANCH   3  24
ATOM     24  O   UNK d   1      11.173 -12.474 -15.148  0.00  0.00    -0.353 OA
ATOM     25  C   UNK d   1       9.934 -12.888 -15.710  0.00  0.00     0.210 C 
ENDBRANCH   3  24
BRANCH   4  26
ATOM     26  C   UNK d   1      11.610  -7.310 -12.742  0.00  0.00     0.090 A 
ATOM     27  O   UNK d   1      11.878  -6.256 -13.609  0.00  0.00    -0.309 OA
ATOM     28  C   UNK d   1      12.029  -4.990 -13.096  0.00  0.00     0.095 A 
ATOM     29  C   UNK d   1      11.947  -4.696 -11.733  0.00  0.00     0.081 A 
ATOM     30  C   UNK d   1      12.280  -3.973 -14.020  0.00  0.00     0.075 A 
ATOM     31  C   UNK d   1      11.683  -5.814 -10.808  0.00  0.00     0.190 A 
ATOM     32  C   UNK d   1      12.116  -3.371 -11.302  0.00  0.00     0.085 A 
ATOM     33  O   UNK d   1      11.607  -5.711  -9.591  0.00  0.00    -0.287 OA
ATOM     34  C   UNK d   1      11.506  -7.143 -11.417  0.00  0.00     0.094 A 
ATOM     35  C   UNK d   1      12.365  -2.351 -12.224  0.00  0.00     0.074 A 
ATOM     36  C   UNK d   1      12.445  -2.665 -13.578  0.00  0.00     0.071 A 
BRANCH  32  37
ATOM     37  O   UNK d   1      12.040  -3.055  -9.976  0.00  0.00    -0.360 OA
ATOM     38  H   UNK d   1      12.153  -2.102  -9.837  0.00  0.00     0.217 HD
ENDBRANCH  32  37
BRANCH  36  39
ATOM     39  O   UNK d   1      12.689  -1.704 -14.514  0.00  0.00    -0.361 OA
ATOM     40  H   UNK d   1      12.750  -0.838 -14.078  0.00  0.00     0.217 HD
ENDBRANCH  36  39
ENDBRANCH   4  26
TORSDOF 11
ENDMDL
MODEL 9
REMARK minimizedAffinity -7.02394533REMARK CNNscore 0.259846061REMARK CNNaffinity 4.32018614REMARK  11 active torsions:
REMARK  status: ('A' for Active; 'I' for Inactive)
REMARK    1  A    between atoms: O_2  and  C_17 
REMARK    2  A    between atoms: O_2  and  C_19 
REMARK    3  A    between atoms: O_3  and  C_13 
REMARK    4  A    between atoms: O_4  and  C_14 
REMARK    5  A    between atoms: O_5  and  C_15 
REMARK    6  A    between atoms: O_6  and  C_18 
REMARK    7  A    between atoms: O_8  and  C_21 
REMARK    8  A    between atoms: O_11  and  C_30 
REMARK    9  A    between atoms: O_12  and  C_33 
REMARK   10  A    between atoms: C_16  and  C_18 
REMARK   11  A    between atoms: C_22  and  C_25 
ROOT
ATOM      1  C   UNK d   1      12.525 -11.246 -14.132  0.00  0.00     0.106 A 
ATOM      2  C   UNK d   1      12.713  -9.891 -13.798  0.00  0.00     0.054 A 
ATOM      3  C   UNK d   1      11.265 -11.676 -14.583  0.00  0.00     0.101 A 
ATOM      4  C   UNK d   1      11.663  -8.953 -13.847  0.00  0.00     0.001 A 
ATOM      5  C   UNK d   1      10.220 -10.753 -14.659  0.00  0.00     0.040 A 
ATOM      6  C   UNK d   1      10.417  -9.419 -14.287  0.00  0.00     0.017 A 
ENDROOT
BRANCH   1   7
ATOM      7  O   UNK d   1      13.500 -12.215 -14.041  0.00  0.00    -0.315 OA
BRANCH   7   8
ATOM      8  C   UNK d   1      13.624 -12.929 -12.808  0.00  0.00     0.299 C 
ATOM      9  O   UNK d   1      14.666 -12.346 -12.021  0.00  0.00    -0.340 OA
ATOM     10  C   UNK d   1      14.831 -12.944 -10.742  0.00  0.00     0.253 C 
ATOM     11  C   UNK d   1      15.192 -14.425 -10.885  0.00  0.00     0.189 C 
ATOM     12  C   UNK d   1      14.157 -15.132 -11.762  0.00  0.00     0.183 C 
ATOM     13  C   UNK d   1      13.958 -14.409 -13.098  0.00  0.00     0.205 C 
BRANCH  10  14
ATOM     14  C   UNK d   1      15.931 -12.228  -9.939  0.00  0.00     0.172 C 
ATOM     15  O   UNK d   1      16.216 -12.456  -8.775  0.00  0.00    -0.648 OA
BRANCH  14  16
ATOM     16  O   UNK d   1      16.628 -11.321 -10.674  0.00  0.00    -0.774 OA
ATOM     17  H   UNK d   1      16.231 -11.174 -11.565  0.00  0.00     0.167 HD
ENDBRANCH  14  16
ENDBRANCH  10  14
BRANCH  11  18
ATOM     18  O   UNK d   1      15.206 -15.054  -9.588  0.00  0.00    -0.390 OA
ATOM     19  H   UNK d   1      15.551 -15.959  -9.740  0.00  0.00     0.210 HD
ENDBRANCH  11  18
BRANCH  12  20
ATOM     20  O   UNK d   1      14.575 -16.488 -11.993  0.00  0.00    -0.390 OA
ATOM     21  H   UNK d   1      14.116 -17.046 -11.337  0.00  0.00     0.210 HD
ENDBRANCH  12  20
BRANCH  13  22
ATOM     22  O   UNK d   1      12.885 -15.069 -13.790  0.00  0.00    -0.388 OA
ATOM     23  H   UNK d   1      13.203 -15.975 -13.967  0.00  0.00     0.210 HD
ENDBRANCH  13  22
ENDBRANCH   7   8
ENDBRANCH   1   7
BRANCH   3  24
ATOM     24  O   UNK d   1      11.144 -13.001 -14.919  0.00  0.00    -0.353 OA
ATOM     25  C   UNK d   1       9.987 -13.382 -15.656  0.00  0.00     0.210 C 
ENDBRANCH   3  24
BRANCH   4  26
ATOM     26  C   UNK d   1      11.886  -7.537 -13.424  0.00  0.00     0.090 A 
ATOM     27  O   UNK d   1      11.625  -7.283 -12.081  0.00  0.00    -0.309 OA
ATOM     28  C   UNK d   1      11.797  -6.008 -11.597  0.00  0.00     0.095 A 
ATOM     29  C   UNK d   1      12.207  -4.932 -12.387  0.00  0.00     0.081 A 
ATOM     30  C   UNK d   1      11.536  -5.822 -10.238  0.00  0.00     0.075 A 
ATOM     31  C   UNK d   1      12.466  -5.194 -13.816  0.00  0.00     0.190 A 
ATOM     32  C   UNK d   1      12.356  -3.665 -11.804  0.00  0.00     0.085 A 
ATOM     33  O   UNK d   1      12.807  -4.346 -14.630  0.00  0.00    -0.287 OA
ATOM     34  C   UNK d   1      12.287  -6.582 -14.273  0.00  0.00     0.094 A 
ATOM     35  C   UNK d   1      12.096  -3.475 -10.443  0.00  0.00     0.074 A 
ATOM     36  C   UNK d   1      11.686  -4.560  -9.674  0.00  0.00     0.071 A 
BRANCH  32  37
ATOM     37  O   UNK d   1      12.755  -2.595 -12.552  0.00  0.00    -0.360 OA
ATOM     38  H   UNK d   1      12.834  -1.797 -12.008  0.00  0.00     0.217 HD
ENDBRANCH  32  37
BRANCH  36  39
ATOM     39  O   UNK d   1      11.419  -4.423  -8.343  0.00  0.00    -0.361 OA
ATOM     40  H   UNK d   1      11.596  -3.506  -8.073  0.00  0.00     0.217 HD
ENDBRANCH  36  39
ENDBRANCH   4  26
TORSDOF 11
ENDMDL
