MODEL 1
REMARK VINA RESULT:      -8.6      0.000      0.000
REMARK  15 active torsions:
REMARK  status: ('A' for Active; 'I' for Inactive)
REMARK    1  A    between atoms: O_2  and  C_21 
REMARK    2  A    between atoms: O_2  and  C_25 
REMARK    3  A    between atoms: O_4  and  C_17 
REMARK    4  A    between atoms: O_5  and  C_24 
REMARK    5  A    between atoms: O_5  and  C_28 
REMARK    6  A    between atoms: O_6  and  C_18 
REMARK    7  A    between atoms: O_7  and  C_19 
REMARK    8  A    between atoms: O_8  and  C_20 
REMARK    9  A    between atoms: O_9  and  C_22 
REMARK   10  A    between atoms: O_10  and  C_23 
REMARK   11  A    between atoms: O_12  and  C_35 
REMARK   12  A    between atoms: O_14  and  C_42 
REMARK   13  A    between atoms: O_15  and  C_40 
REMARK   14  A    between atoms: C_16  and  C_25 
REMARK   15  A    between atoms: C_33  and  C_37 
ROOT
ATOM      1  O   UNK d   1       7.104  -3.794  25.852  0.00  0.00    -0.348 OA
ATOM      2  C   UNK d   1       6.177  -4.643  26.536  0.00  0.00     0.180 C 
ATOM      3  C   UNK d   1       6.844  -5.203  27.804  0.00  0.00     0.180 C 
ATOM      4  C   UNK d   1       8.148  -5.915  27.435  0.00  0.00     0.183 C 
ATOM      5  C   UNK d   1       9.063  -5.006  26.608  0.00  0.00     0.205 C 
ATOM      6  C   UNK d   1       8.276  -4.473  25.396  0.00  0.00     0.298 C 
ENDROOT
BRANCH   6   7
ATOM      7  O   UNK d   1       9.104  -3.543  24.685  0.00  0.00    -0.318 OA
BRANCH   7   8
ATOM      8  C   UNK d   1       8.853  -3.365  23.351  0.00  0.00     0.077 A 
ATOM      9  C   UNK d   1       9.279  -2.296  22.567  0.00  0.00     0.074 A 
ATOM     10  C   UNK d   1       8.872  -2.191  21.231  0.00  0.00     0.089 A 
ATOM     11  O   UNK d   1       9.272  -1.042  20.606  0.00  0.00    -0.340 OA
ATOM     12  C   UNK d   1       8.096  -3.190  20.642  0.00  0.00     0.076 A 
ATOM     13  C   UNK d   1       8.552  -0.676  19.424  0.00  0.00     0.169 C 
ATOM     14  C   UNK d   1       8.301  -1.850  18.493  0.00  0.00     0.121 C 
ATOM     15  C   UNK d   1       7.706  -3.021  19.219  0.00  0.00     0.167 C 
ATOM     16  O   UNK d   1       6.983  -3.813  18.625  0.00  0.00    -0.292 OA
ATOM     17  C   UNK d   1       7.701  -4.284  21.422  0.00  0.00     0.085 A 
ATOM     18  C   UNK d   1       8.070  -4.363  22.769  0.00  0.00     0.074 A 
BRANCH  13  19
ATOM     19  C   UNK d   1       7.339   0.200  19.730  0.00  0.00    -0.026 A 
ATOM     20  C   UNK d   1       6.802   0.342  21.018  0.00  0.00     0.049 A 
ATOM     21  C   UNK d   1       5.696   1.168  21.244  0.00  0.00     0.099 A 
ATOM     22  C   UNK d   1       5.085   1.870  20.199  0.00  0.00     0.101 A 
ATOM     23  C   UNK d   1       5.608   1.729  18.914  0.00  0.00     0.040 A 
ATOM     24  C   UNK d   1       6.719   0.905  18.685  0.00  0.00     0.012 A 
BRANCH  21  25
ATOM     25  O   UNK d   1       5.197   1.298  22.515  0.00  0.00    -0.358 OA
ATOM     26  H   UNK d   1       4.246   1.473  22.468  0.00  0.00     0.217 HD
ENDBRANCH  21  25
BRANCH  22  27
ATOM     27  O   UNK d   1       4.011   2.649  20.536  0.00  0.00    -0.353 OA
ATOM     28  C   UNK d   1       3.272   3.241  19.478  0.00  0.00     0.210 C 
ENDBRANCH  22  27
ENDBRANCH  13  19
BRANCH  17  29
ATOM     29  O   UNK d   1       6.938  -5.285  20.895  0.00  0.00    -0.360 OA
ATOM     30  H   UNK d   1       6.168  -4.918  20.431  0.00  0.00     0.217 HD
ENDBRANCH  17  29
ENDBRANCH   7   8
ENDBRANCH   6   7
BRANCH   5  31
ATOM     31  O   UNK d   1      10.210  -5.769  26.204  0.00  0.00    -0.388 OA
ATOM     32  H   UNK d   1      10.104  -6.642  26.630  0.00  0.00     0.210 HD
ENDBRANCH   5  31
BRANCH   2  33
ATOM     33  C   UNK d   1       4.924  -3.824  26.904  0.00  0.00     0.205 C 
BRANCH  33  34
ATOM     34  O   UNK d   1       3.745  -4.634  26.989  0.00  0.00    -0.356 OA
BRANCH  34  35
ATOM     35  C   UNK d   1       3.614  -5.581  25.921  0.00  0.00     0.291 C 
ATOM     36  O   UNK d   1       2.837  -4.995  24.866  0.00  0.00    -0.351 OA
ATOM     37  C   UNK d   1       2.117  -5.903  24.029  0.00  0.00     0.152 C 
ATOM     38  C   UNK d   1       2.803  -7.272  23.947  0.00  0.00     0.178 C 
ATOM     39  C   UNK d   1       1.978  -5.234  22.666  0.00  0.00     0.042 C 
ATOM     40  C   UNK d   1       2.817  -7.912  25.344  0.00  0.00     0.183 C 
ATOM     41  C   UNK d   1       2.972  -6.874  26.470  0.00  0.00     0.204 C 
BRANCH  38  42
ATOM     42  O   UNK d   1       2.158  -8.176  23.048  0.00  0.00    -0.390 OA
ATOM     43  H   UNK d   1       2.844  -8.572  22.482  0.00  0.00     0.210 HD
ENDBRANCH  38  42
BRANCH  40  44
ATOM     44  O   UNK d   1       3.899  -8.867  25.403  0.00  0.00    -0.390 OA
ATOM     45  H   UNK d   1       4.110  -8.959  26.354  0.00  0.00     0.210 HD
ENDBRANCH  40  44
BRANCH  41  46
ATOM     46  O   UNK d   1       3.713  -7.453  27.555  0.00  0.00    -0.388 OA
ATOM     47  H   UNK d   1       3.072  -7.530  28.293  0.00  0.00     0.210 HD
ENDBRANCH  41  46
ENDBRANCH  34  35
ENDBRANCH  33  34
ENDBRANCH   2  33
BRANCH   4  48
ATOM     48  O   UNK d   1       8.844  -6.323  28.626  0.00  0.00    -0.390 OA
ATOM     49  H   UNK d   1       8.160  -6.636  29.247  0.00  0.00     0.210 HD
ENDBRANCH   4  48
BRANCH   3  50
ATOM     50  O   UNK d   1       5.985  -6.126  28.477  0.00  0.00    -0.390 OA
ATOM     51  H   UNK d   1       6.104  -6.992  28.047  0.00  0.00     0.210 HD
ENDBRANCH   3  50
TORSDOF 15
ENDMDL
MODEL 2
REMARK VINA RESULT:      -8.0     22.563     29.508
REMARK  15 active torsions:
REMARK  status: ('A' for Active; 'I' for Inactive)
REMARK    1  A    between atoms: O_2  and  C_21 
REMARK    2  A    between atoms: O_2  and  C_25 
REMARK    3  A    between atoms: O_4  and  C_17 
REMARK    4  A    between atoms: O_5  and  C_24 
REMARK    5  A    between atoms: O_5  and  C_28 
REMARK    6  A    between atoms: O_6  and  C_18 
REMARK    7  A    between atoms: O_7  and  C_19 
REMARK    8  A    between atoms: O_8  and  C_20 
REMARK    9  A    between atoms: O_9  and  C_22 
REMARK   10  A    between atoms: O_10  and  C_23 
REMARK   11  A    between atoms: O_12  and  C_35 
REMARK   12  A    between atoms: O_14  and  C_42 
REMARK   13  A    between atoms: O_15  and  C_40 
REMARK   14  A    between atoms: C_16  and  C_25 
REMARK   15  A    between atoms: C_33  and  C_37 
ROOT
ATOM      1  O   UNK d   1      11.404  17.889   3.901  0.00  0.00    -0.348 OA
ATOM      2  C   UNK d   1      11.517  19.117   4.628  0.00  0.00     0.180 C 
ATOM      3  C   UNK d   1      13.005  19.445   4.839  0.00  0.00     0.180 C 
ATOM      4  C   UNK d   1      13.703  18.273   5.532  0.00  0.00     0.183 C 
ATOM      5  C   UNK d   1      13.462  16.960   4.781  0.00  0.00     0.205 C 
ATOM      6  C   UNK d   1      11.947  16.762   4.591  0.00  0.00     0.298 C 
ENDROOT
BRANCH   6   7
ATOM      7  O   UNK d   1      11.733  15.586   3.799  0.00  0.00    -0.318 OA
BRANCH   7   8
ATOM      8  C   UNK d   1      10.462  15.348   3.350  0.00  0.00     0.077 A 
ATOM      9  C   UNK d   1       9.311  15.274   4.131  0.00  0.00     0.074 A 
ATOM     10  C   UNK d   1       8.083  14.932   3.553  0.00  0.00     0.089 A 
ATOM     11  O   UNK d   1       7.056  14.792   4.445  0.00  0.00    -0.340 OA
ATOM     12  C   UNK d   1       7.975  14.732   2.176  0.00  0.00     0.076 A 
ATOM     13  C   UNK d   1       5.920  14.044   3.997  0.00  0.00     0.169 C 
ATOM     14  C   UNK d   1       5.488  14.406   2.587  0.00  0.00     0.121 C 
ATOM     15  C   UNK d   1       6.642  14.379   1.626  0.00  0.00     0.167 C 
ATOM     16  O   UNK d   1       6.452  14.131   0.440  0.00  0.00    -0.292 OA
ATOM     17  C   UNK d   1       9.126  14.844   1.387  0.00  0.00     0.085 A 
ATOM     18  C   UNK d   1      10.361  15.141   1.974  0.00  0.00     0.074 A 
BRANCH  13  19
ATOM     19  C   UNK d   1       6.057  12.550   4.287  0.00  0.00    -0.026 A 
ATOM     20  C   UNK d   1       7.279  11.865   4.219  0.00  0.00     0.049 A 
ATOM     21  C   UNK d   1       7.348  10.497   4.507  0.00  0.00     0.099 A 
ATOM     22  C   UNK d   1       6.207   9.769   4.862  0.00  0.00     0.101 A 
ATOM     23  C   UNK d   1       4.987  10.441   4.927  0.00  0.00     0.040 A 
ATOM     24  C   UNK d   1       4.915  11.813   4.644  0.00  0.00     0.012 A 
BRANCH  21  25
ATOM     25  O   UNK d   1       8.556   9.853   4.442  0.00  0.00    -0.358 OA
ATOM     26  H   UNK d   1       9.077  10.071   5.230  0.00  0.00     0.217 HD
ENDBRANCH  21  25
BRANCH  22  27
ATOM     27  O   UNK d   1       6.393   8.438   5.124  0.00  0.00    -0.353 OA
ATOM     28  C   UNK d   1       5.341   7.549   4.782  0.00  0.00     0.210 C 
ENDBRANCH  22  27
ENDBRANCH  13  19
BRANCH  17  29
ATOM     29  O   UNK d   1       9.075  14.653   0.036  0.00  0.00    -0.360 OA
ATOM     30  H   UNK d   1       8.176  14.805  -0.295  0.00  0.00     0.217 HD
ENDBRANCH  17  29
ENDBRANCH   7   8
ENDBRANCH   6   7
BRANCH   5  31
ATOM     31  O   UNK d   1      14.047  15.891   5.542  0.00  0.00    -0.388 OA
ATOM     32  H   UNK d   1      13.633  15.075   5.202  0.00  0.00     0.210 HD
ENDBRANCH   5  31
BRANCH   2  33
ATOM     33  C   UNK d   1      10.826  20.238   3.828  0.00  0.00     0.205 C 
BRANCH  33  34
ATOM     34  O   UNK d   1      11.472  20.495   2.575  0.00  0.00    -0.356 OA
BRANCH  34  35
ATOM     35  C   UNK d   1      10.569  20.590   1.466  0.00  0.00     0.291 C 
ATOM     36  O   UNK d   1       9.657  21.675   1.695  0.00  0.00    -0.351 OA
ATOM     37  C   UNK d   1       8.380  21.575   1.060  0.00  0.00     0.152 C 
ATOM     38  C   UNK d   1       8.447  20.753  -0.232  0.00  0.00     0.178 C 
ATOM     39  C   UNK d   1       7.890  23.000   0.824  0.00  0.00     0.042 C 
ATOM     40  C   UNK d   1       8.858  19.312   0.110  0.00  0.00     0.183 C 
ATOM     41  C   UNK d   1       9.838  19.240   1.293  0.00  0.00     0.204 C 
BRANCH  38  42
ATOM     42  O   UNK d   1       7.207  20.707  -0.940  0.00  0.00    -0.390 OA
ATOM     43  H   UNK d   1       7.020  21.603  -1.272  0.00  0.00     0.210 HD
ENDBRANCH  38  42
BRANCH  40  44
ATOM     44  O   UNK d   1       9.457  18.714  -1.061  0.00  0.00    -0.390 OA
ATOM     45  H   UNK d   1      10.352  18.436  -0.780  0.00  0.00     0.210 HD
ENDBRANCH  40  44
BRANCH  41  46
ATOM     46  O   UNK d   1      10.735  18.135   1.106  0.00  0.00    -0.388 OA
ATOM     47  H   UNK d   1      10.300  17.559   0.443  0.00  0.00     0.210 HD
ENDBRANCH  41  46
ENDBRANCH  34  35
ENDBRANCH  33  34
ENDBRANCH   2  33
BRANCH   4  48
ATOM     48  O   UNK d   1      15.119  18.516   5.611  0.00  0.00    -0.390 OA
ATOM     49  H   UNK d   1      15.277  19.358   5.146  0.00  0.00     0.210 HD
ENDBRANCH   4  48
BRANCH   3  50
ATOM     50  O   UNK d   1      13.169  20.621   5.635  0.00  0.00    -0.390 OA
ATOM     51  H   UNK d   1      12.450  21.232   5.391  0.00  0.00     0.210 HD
ENDBRANCH   3  50
TORSDOF 15
ENDMDL
MODEL 3
REMARK VINA RESULT:      -8.0      2.749      8.611
REMARK  15 active torsions:
REMARK  status: ('A' for Active; 'I' for Inactive)
REMARK    1  A    between atoms: O_2  and  C_21 
REMARK    2  A    between atoms: O_2  and  C_25 
REMARK    3  A    between atoms: O_4  and  C_17 
REMARK    4  A    between atoms: O_5  and  C_24 
REMARK    5  A    between atoms: O_5  and  C_28 
REMARK    6  A    between atoms: O_6  and  C_18 
REMARK    7  A    between atoms: O_7  and  C_19 
REMARK    8  A    between atoms: O_8  and  C_20 
REMARK    9  A    between atoms: O_9  and  C_22 
REMARK   10  A    between atoms: O_10  and  C_23 
REMARK   11  A    between atoms: O_12  and  C_35 
REMARK   12  A    between atoms: O_14  and  C_42 
REMARK   13  A    between atoms: O_15  and  C_40 
REMARK   14  A    between atoms: C_16  and  C_25 
REMARK   15  A    between atoms: C_33  and  C_37 
ROOT
ATOM      1  O   UNK d   1       7.696   1.824  22.719  0.00  0.00    -0.348 OA
ATOM      2  C   UNK d   1       6.422   2.408  22.430  0.00  0.00     0.180 C 
ATOM      3  C   UNK d   1       6.585   3.930  22.282  0.00  0.00     0.180 C 
ATOM      4  C   UNK d   1       7.237   4.508  23.540  0.00  0.00     0.183 C 
ATOM      5  C   UNK d   1       8.542   3.779  23.875  0.00  0.00     0.205 C 
ATOM      6  C   UNK d   1       8.264   2.266  23.953  0.00  0.00     0.298 C 
ENDROOT
BRANCH   6   7
ATOM      7  O   UNK d   1       9.507   1.581  24.164  0.00  0.00    -0.318 OA
BRANCH   7   8
ATOM      8  C   UNK d   1       9.462   0.373  24.804  0.00  0.00     0.077 A 
ATOM      9  C   UNK d   1       9.943  -0.839  24.315  0.00  0.00     0.074 A 
ATOM     10  C   UNK d   1       9.749  -2.023  25.038  0.00  0.00     0.089 A 
ATOM     11  O   UNK d   1      10.175  -3.154  24.398  0.00  0.00    -0.340 OA
ATOM     12  C   UNK d   1       9.138  -1.999  26.293  0.00  0.00     0.076 A 
ATOM     13  C   UNK d   1       9.632  -4.393  24.866  0.00  0.00     0.169 C 
ATOM     14  C   UNK d   1       9.604  -4.496  26.381  0.00  0.00     0.121 C 
ATOM     15  C   UNK d   1       8.971  -3.288  27.010  0.00  0.00     0.167 C 
ATOM     16  O   UNK d   1       8.400  -3.382  28.091  0.00  0.00    -0.292 OA
ATOM     17  C   UNK d   1       8.690  -0.773  26.800  0.00  0.00     0.085 A 
ATOM     18  C   UNK d   1       8.843   0.400  26.055  0.00  0.00     0.074 A 
BRANCH  13  19
ATOM     19  C   UNK d   1       8.335  -4.767  24.150  0.00  0.00    -0.026 A 
ATOM     20  C   UNK d   1       8.209  -4.786  22.754  0.00  0.00     0.049 A 
ATOM     21  C   UNK d   1       7.000  -5.148  22.150  0.00  0.00     0.099 A 
ATOM     22  C   UNK d   1       5.879  -5.493  22.914  0.00  0.00     0.101 A 
ATOM     23  C   UNK d   1       5.994  -5.471  24.303  0.00  0.00     0.040 A 
ATOM     24  C   UNK d   1       7.206  -5.113  24.912  0.00  0.00     0.012 A 
BRANCH  21  25
ATOM     25  O   UNK d   1       6.906  -5.169  20.782  0.00  0.00    -0.358 OA
ATOM     26  H   UNK d   1       7.755  -4.900  20.400  0.00  0.00     0.217 HD
ENDBRANCH  21  25
BRANCH  22  27
ATOM     27  O   UNK d   1       4.750  -5.832  22.218  0.00  0.00    -0.353 OA
ATOM     28  C   UNK d   1       3.611  -6.227  22.967  0.00  0.00     0.210 C 
ENDBRANCH  22  27
ENDBRANCH  13  19
BRANCH  17  29
ATOM     29  O   UNK d   1       8.081  -0.697  28.020  0.00  0.00    -0.360 OA
ATOM     30  H   UNK d   1       7.966   0.230  28.285  0.00  0.00     0.217 HD
ENDBRANCH  17  29
ENDBRANCH   7   8
ENDBRANCH   6   7
BRANCH   5  31
ATOM     31  O   UNK d   1       9.039   4.293  25.120  0.00  0.00    -0.388 OA
ATOM     32  H   UNK d   1       8.290   4.777  25.518  0.00  0.00     0.210 HD
ENDBRANCH   5  31
BRANCH   2  33
ATOM     33  C   UNK d   1       5.874   1.796  21.126  0.00  0.00     0.205 C 
BRANCH  33  34
ATOM     34  O   UNK d   1       6.895   1.601  20.140  0.00  0.00    -0.356 OA
BRANCH  34  35
ATOM     35  C   UNK d   1       7.311   0.237  19.998  0.00  0.00     0.291 C 
ATOM     36  O   UNK d   1       8.615   0.080  20.576  0.00  0.00    -0.351 OA
ATOM     37  C   UNK d   1       9.422  -0.973  20.044  0.00  0.00     0.152 C 
ATOM     38  C   UNK d   1       8.572  -2.123  19.492  0.00  0.00     0.178 C 
ATOM     39  C   UNK d   1      10.359  -1.420  21.162  0.00  0.00     0.042 C 
ATOM     40  C   UNK d   1       7.731  -1.605  18.315  0.00  0.00     0.183 C 
ATOM     41  C   UNK d   1       7.287  -0.144  18.501  0.00  0.00     0.204 C 
BRANCH  38  42
ATOM     42  O   UNK d   1       9.347  -3.232  19.034  0.00  0.00    -0.390 OA
ATOM     43  H   UNK d   1       9.925  -3.514  19.765  0.00  0.00     0.210 HD
ENDBRANCH  38  42
BRANCH  40  44
ATOM     44  O   UNK d   1       6.572  -2.456  18.168  0.00  0.00    -0.390 OA
ATOM     45  H   UNK d   1       6.493  -2.619  17.206  0.00  0.00     0.210 HD
ENDBRANCH  40  44
BRANCH  41  46
ATOM     46  O   UNK d   1       6.000   0.047  17.893  0.00  0.00    -0.388 OA
ATOM     47  H   UNK d   1       5.693  -0.852  17.651  0.00  0.00     0.210 HD
ENDBRANCH  41  46
ENDBRANCH  34  35
ENDBRANCH  33  34
ENDBRANCH   2  33
BRANCH   4  48
ATOM     48  O   UNK d   1       7.516   5.907  23.356  0.00  0.00    -0.390 OA
ATOM     49  H   UNK d   1       7.889   5.995  22.460  0.00  0.00     0.210 HD
ENDBRANCH   4  48
BRANCH   3  50
ATOM     50  O   UNK d   1       5.323   4.569  22.077  0.00  0.00    -0.390 OA
ATOM     51  H   UNK d   1       5.133   4.525  21.122  0.00  0.00     0.210 HD
ENDBRANCH   3  50
TORSDOF 15
ENDMDL
MODEL 4
REMARK VINA RESULT:      -7.8      5.005      8.714
REMARK  15 active torsions:
REMARK  status: ('A' for Active; 'I' for Inactive)
REMARK    1  A    between atoms: O_2  and  C_21 
REMARK    2  A    between atoms: O_2  and  C_25 
REMARK    3  A    between atoms: O_4  and  C_17 
REMARK    4  A    between atoms: O_5  and  C_24 
REMARK    5  A    between atoms: O_5  and  C_28 
REMARK    6  A    between atoms: O_6  and  C_18 
REMARK    7  A    between atoms: O_7  and  C_19 
REMARK    8  A    between atoms: O_8  and  C_20 
REMARK    9  A    between atoms: O_9  and  C_22 
REMARK   10  A    between atoms: O_10  and  C_23 
REMARK   11  A    between atoms: O_12  and  C_35 
REMARK   12  A    between atoms: O_14  and  C_42 
REMARK   13  A    between atoms: O_15  and  C_40 
REMARK   14  A    between atoms: C_16  and  C_25 
REMARK   15  A    between atoms: C_33  and  C_37 
ROOT
ATOM      1  O   UNK d   1       9.510  -0.613  21.082  0.00  0.00    -0.348 OA
ATOM      2  C   UNK d   1       8.802  -1.399  20.118  0.00  0.00     0.180 C 
ATOM      3  C   UNK d   1       7.835  -2.345  20.848  0.00  0.00     0.180 C 
ATOM      4  C   UNK d   1       8.605  -3.194  21.863  0.00  0.00     0.183 C 
ATOM      5  C   UNK d   1       9.437  -2.318  22.804  0.00  0.00     0.205 C 
ATOM      6  C   UNK d   1      10.328  -1.385  21.963  0.00  0.00     0.298 C 
ENDROOT
BRANCH   6   7
ATOM      7  O   UNK d   1      11.027  -0.497  22.846  0.00  0.00    -0.318 OA
BRANCH   7   8
ATOM      8  C   UNK d   1      10.281   0.408  23.552  0.00  0.00     0.077 A 
ATOM      9  C   UNK d   1       9.795   1.625  23.081  0.00  0.00     0.074 A 
ATOM     10  C   UNK d   1       9.121   2.500  23.942  0.00  0.00     0.089 A 
ATOM     11  O   UNK d   1       8.790   3.702  23.381  0.00  0.00    -0.340 OA
ATOM     12  C   UNK d   1       8.860   2.137  25.264  0.00  0.00     0.076 A 
ATOM     13  C   UNK d   1       8.504   4.771  24.290  0.00  0.00     0.169 C 
ATOM     14  C   UNK d   1       7.616   4.347  25.447  0.00  0.00     0.121 C 
ATOM     15  C   UNK d   1       8.133   3.109  26.121  0.00  0.00     0.167 C 
ATOM     16  O   UNK d   1       7.902   2.910  27.309  0.00  0.00    -0.292 OA
ATOM     17  C   UNK d   1       9.315   0.897  25.725  0.00  0.00     0.085 A 
ATOM     18  C   UNK d   1      10.029   0.045  24.876  0.00  0.00     0.074 A 
BRANCH  13  19
ATOM     19  C   UNK d   1       9.754   5.564  24.667  0.00  0.00    -0.026 A 
ATOM     20  C   UNK d   1      10.986   5.407  24.016  0.00  0.00     0.049 A 
ATOM     21  C   UNK d   1      12.097   6.169  24.395  0.00  0.00     0.099 A 
ATOM     22  C   UNK d   1      12.020   7.101  25.436  0.00  0.00     0.101 A 
ATOM     23  C   UNK d   1      10.800   7.260  26.092  0.00  0.00     0.040 A 
ATOM     24  C   UNK d   1       9.683   6.501  25.712  0.00  0.00     0.012 A 
BRANCH  21  25
ATOM     25  O   UNK d   1      13.288   6.003  23.736  0.00  0.00    -0.358 OA
ATOM     26  H   UNK d   1      13.597   5.094  23.860  0.00  0.00     0.217 HD
ENDBRANCH  21  25
BRANCH  22  27
ATOM     27  O   UNK d   1      13.167   7.792  25.719  0.00  0.00    -0.353 OA
ATOM     28  C   UNK d   1      13.615   7.794  27.067  0.00  0.00     0.210 C 
ENDBRANCH  22  27
ENDBRANCH  13  19
BRANCH  17  29
ATOM     29  O   UNK d   1       9.090   0.498  27.011  0.00  0.00    -0.360 OA
ATOM     30  H   UNK d   1       9.858   0.700  27.569  0.00  0.00     0.217 HD
ENDBRANCH  17  29
ENDBRANCH   7   8
ENDBRANCH   6   7
BRANCH   5  31
ATOM     31  O   UNK d   1      10.215  -3.177  23.651  0.00  0.00    -0.388 OA
ATOM     32  H   UNK d   1      10.474  -2.623  24.413  0.00  0.00     0.210 HD
ENDBRANCH   5  31
BRANCH   2  33
ATOM     33  C   UNK d   1       8.025  -0.457  19.177  0.00  0.00     0.205 C 
BRANCH  33  34
ATOM     34  O   UNK d   1       8.236   0.925  19.489  0.00  0.00    -0.356 OA
BRANCH  34  35
ATOM     35  C   UNK d   1       7.081   1.579  20.030  0.00  0.00     0.291 C 
ATOM     36  O   UNK d   1       6.879   1.136  21.380  0.00  0.00    -0.351 OA
ATOM     37  C   UNK d   1       5.538   1.187  21.871  0.00  0.00     0.152 C 
ATOM     38  C   UNK d   1       4.719   2.287  21.186  0.00  0.00     0.178 C 
ATOM     39  C   UNK d   1       5.625   1.375  23.382  0.00  0.00     0.042 C 
ATOM     40  C   UNK d   1       4.605   1.968  19.687  0.00  0.00     0.183 C 
ATOM     41  C   UNK d   1       5.862   1.279  19.129  0.00  0.00     0.204 C 
BRANCH  38  42
ATOM     42  O   UNK d   1       3.399   2.425  21.715  0.00  0.00    -0.390 OA
ATOM     43  H   UNK d   1       2.825   2.755  21.001  0.00  0.00     0.210 HD
ENDBRANCH  38  42
BRANCH  40  44
ATOM     44  O   UNK d   1       4.361   3.199  18.971  0.00  0.00    -0.390 OA
ATOM     45  H   UNK d   1       4.187   2.930  18.047  0.00  0.00     0.210 HD
ENDBRANCH  40  44
BRANCH  41  46
ATOM     46  O   UNK d   1       6.061   1.677  17.765  0.00  0.00    -0.388 OA
ATOM     47  H   UNK d   1       5.160   1.795  17.396  0.00  0.00     0.210 HD
ENDBRANCH  41  46
ENDBRANCH  34  35
ENDBRANCH  33  34
ENDBRANCH   2  33
BRANCH   4  48
ATOM     48  O   UNK d   1       7.691  -3.985  22.644  0.00  0.00    -0.390 OA
ATOM     49  H   UNK d   1       8.101  -4.865  22.735  0.00  0.00     0.210 HD
ENDBRANCH   4  48
BRANCH   3  50
ATOM     50  O   UNK d   1       7.165  -3.212  19.931  0.00  0.00    -0.390 OA
ATOM     51  H   UNK d   1       7.852  -3.633  19.383  0.00  0.00     0.210 HD
ENDBRANCH   3  50
TORSDOF 15
ENDMDL
MODEL 5
REMARK VINA RESULT:      -7.8      1.651      2.627
REMARK  15 active torsions:
REMARK  status: ('A' for Active; 'I' for Inactive)
REMARK    1  A    between atoms: O_2  and  C_21 
REMARK    2  A    between atoms: O_2  and  C_25 
REMARK    3  A    between atoms: O_4  and  C_17 
REMARK    4  A    between atoms: O_5  and  C_24 
REMARK    5  A    between atoms: O_5  and  C_28 
REMARK    6  A    between atoms: O_6  and  C_18 
REMARK    7  A    between atoms: O_7  and  C_19 
REMARK    8  A    between atoms: O_8  and  C_20 
REMARK    9  A    between atoms: O_9  and  C_22 
REMARK   10  A    between atoms: O_10  and  C_23 
REMARK   11  A    between atoms: O_12  and  C_35 
REMARK   12  A    between atoms: O_14  and  C_42 
REMARK   13  A    between atoms: O_15  and  C_40 
REMARK   14  A    between atoms: C_16  and  C_25 
REMARK   15  A    between atoms: C_33  and  C_37 
ROOT
ATOM      1  O   UNK d   1       6.359  -5.101  23.803  0.00  0.00    -0.348 OA
ATOM      2  C   UNK d   1       5.427  -6.172  23.992  0.00  0.00     0.180 C 
ATOM      3  C   UNK d   1       5.163  -6.353  25.496  0.00  0.00     0.180 C 
ATOM      4  C   UNK d   1       6.487  -6.573  26.234  0.00  0.00     0.183 C 
ATOM      5  C   UNK d   1       7.493  -5.464  25.914  0.00  0.00     0.205 C 
ATOM      6  C   UNK d   1       7.640  -5.346  24.385  0.00  0.00     0.298 C 
ENDROOT
BRANCH   6   7
ATOM      7  O   UNK d   1       8.503  -4.239  24.091  0.00  0.00    -0.318 OA
BRANCH   7   8
ATOM      8  C   UNK d   1       8.461  -3.725  22.823  0.00  0.00     0.077 A 
ATOM      9  C   UNK d   1       8.895  -2.461  22.430  0.00  0.00     0.074 A 
ATOM     10  C   UNK d   1       8.709  -2.026  21.112  0.00  0.00     0.089 A 
ATOM     11  O   UNK d   1       9.083  -0.730  20.886  0.00  0.00    -0.340 OA
ATOM     12  C   UNK d   1       8.154  -2.875  20.153  0.00  0.00     0.076 A 
ATOM     13  C   UNK d   1       8.536  -0.104  19.720  0.00  0.00     0.169 C 
ATOM     14  C   UNK d   1       8.572  -0.997  18.492  0.00  0.00     0.121 C 
ATOM     15  C   UNK d   1       7.992  -2.353  18.773  0.00  0.00     0.167 C 
ATOM     16  O   UNK d   1       7.468  -2.999  17.871  0.00  0.00    -0.292 OA
ATOM     17  C   UNK d   1       7.754  -4.159  20.542  0.00  0.00     0.085 A 
ATOM     18  C   UNK d   1       7.899  -4.574  21.869  0.00  0.00     0.074 A 
BRANCH  13  19
ATOM     19  C   UNK d   1       7.202   0.584  20.003  0.00  0.00    -0.026 A 
ATOM     20  C   UNK d   1       6.644   0.677  21.286  0.00  0.00     0.049 A 
ATOM     21  C   UNK d   1       5.423   1.329  21.489  0.00  0.00     0.099 A 
ATOM     22  C   UNK d   1       4.717   1.902  20.425  0.00  0.00     0.101 A 
ATOM     23  C   UNK d   1       5.262   1.810  19.145  0.00  0.00     0.040 A 
ATOM     24  C   UNK d   1       6.487   1.160  18.938  0.00  0.00     0.012 A 
BRANCH  21  25
ATOM     25  O   UNK d   1       4.904   1.414  22.755  0.00  0.00    -0.358 OA
ATOM     26  H   UNK d   1       3.964   1.643  22.701  0.00  0.00     0.217 HD
ENDBRANCH  21  25
BRANCH  22  27
ATOM     27  O   UNK d   1       3.535   2.517  20.741  0.00  0.00    -0.353 OA
ATOM     28  C   UNK d   1       2.860   3.212  19.703  0.00  0.00     0.210 C 
ENDBRANCH  22  27
ENDBRANCH  13  19
BRANCH  17  29
ATOM     29  O   UNK d   1       7.201  -5.026  19.643  0.00  0.00    -0.360 OA
ATOM     30  H   UNK d   1       6.275  -5.205  19.869  0.00  0.00     0.217 HD
ENDBRANCH  17  29
ENDBRANCH   7   8
ENDBRANCH   6   7
BRANCH   5  31
ATOM     31  O   UNK d   1       8.741  -5.791  26.545  0.00  0.00    -0.388 OA
ATOM     32  H   UNK d   1       8.625  -5.555  27.485  0.00  0.00     0.210 HD
ENDBRANCH   5  31
BRANCH   2  33
ATOM     33  C   UNK d   1       4.118  -5.833  23.253  0.00  0.00     0.205 C 
BRANCH  33  34
ATOM     34  O   UNK d   1       3.026  -5.601  24.151  0.00  0.00    -0.356 OA
BRANCH  34  35
ATOM     35  C   UNK d   1       1.820  -6.282  23.785  0.00  0.00     0.291 C 
ATOM     36  O   UNK d   1       2.047  -7.699  23.834  0.00  0.00    -0.351 OA
ATOM     37  C   UNK d   1       1.228  -8.502  22.981  0.00  0.00     0.152 C 
ATOM     38  C   UNK d   1      -0.132  -7.849  22.712  0.00  0.00     0.178 C 
ATOM     39  C   UNK d   1       1.102  -9.869  23.647  0.00  0.00     0.042 C 
ATOM     40  C   UNK d   1       0.085  -6.527  21.960  0.00  0.00     0.183 C 
ATOM     41  C   UNK d   1       1.379  -5.810  22.382  0.00  0.00     0.204 C 
BRANCH  38  42
ATOM     42  O   UNK d   1      -1.010  -8.666  21.936  0.00  0.00    -0.390 OA
ATOM     43  H   UNK d   1      -0.781  -8.542  20.998  0.00  0.00     0.210 HD
ENDBRANCH  38  42
BRANCH  40  44
ATOM     44  O   UNK d   1      -1.052  -5.669  22.197  0.00  0.00    -0.390 OA
ATOM     45  H   UNK d   1      -0.844  -5.187  23.022  0.00  0.00     0.210 HD
ENDBRANCH  40  44
BRANCH  41  46
ATOM     46  O   UNK d   1       1.188  -4.390  22.301  0.00  0.00    -0.388 OA
ATOM     47  H   UNK d   1       1.139  -4.190  21.342  0.00  0.00     0.210 HD
ENDBRANCH  41  46
ENDBRANCH  34  35
ENDBRANCH  33  34
ENDBRANCH   2  33
BRANCH   4  48
ATOM     48  O   UNK d   1       6.263  -6.609  27.654  0.00  0.00    -0.390 OA
ATOM     49  H   UNK d   1       6.705  -7.415  27.979  0.00  0.00     0.210 HD
ENDBRANCH   4  48
BRANCH   3  50
ATOM     50  O   UNK d   1       4.303  -7.467  25.742  0.00  0.00    -0.390 OA
ATOM     51  H   UNK d   1       3.998  -7.787  24.874  0.00  0.00     0.210 HD
ENDBRANCH   3  50
TORSDOF 15
ENDMDL
MODEL 6
REMARK VINA RESULT:      -7.8     26.672     31.817
REMARK  15 active torsions:
REMARK  status: ('A' for Active; 'I' for Inactive)
REMARK    1  A    between atoms: O_2  and  C_21 
REMARK    2  A    between atoms: O_2  and  C_25 
REMARK    3  A    between atoms: O_4  and  C_17 
REMARK    4  A    between atoms: O_5  and  C_24 
REMARK    5  A    between atoms: O_5  and  C_28 
REMARK    6  A    between atoms: O_6  and  C_18 
REMARK    7  A    between atoms: O_7  and  C_19 
REMARK    8  A    between atoms: O_8  and  C_20 
REMARK    9  A    between atoms: O_9  and  C_22 
REMARK   10  A    between atoms: O_10  and  C_23 
REMARK   11  A    between atoms: O_12  and  C_35 
REMARK   12  A    between atoms: O_14  and  C_42 
REMARK   13  A    between atoms: O_15  and  C_40 
REMARK   14  A    between atoms: C_16  and  C_25 
REMARK   15  A    between atoms: C_33  and  C_37 
ROOT
ATOM      1  O   UNK d   1      11.115  16.734   3.182  0.00  0.00    -0.348 OA
ATOM      2  C   UNK d   1      10.965  16.035   4.422  0.00  0.00     0.180 C 
ATOM      3  C   UNK d   1      10.774  14.536   4.137  0.00  0.00     0.180 C 
ATOM      4  C   UNK d   1       9.590  14.333   3.188  0.00  0.00     0.183 C 
ATOM      5  C   UNK d   1       9.738  15.185   1.925  0.00  0.00     0.205 C 
ATOM      6  C   UNK d   1       9.968  16.652   2.334  0.00  0.00     0.298 C 
ENDROOT
BRANCH   6   7
ATOM      7  O   UNK d   1      10.209  17.427   1.151  0.00  0.00    -0.318 OA
BRANCH   7   8
ATOM      8  C   UNK d   1       9.631  18.666   1.079  0.00  0.00     0.077 A 
ATOM      9  C   UNK d   1      10.084  19.745   0.323  0.00  0.00     0.074 A 
ATOM     10  C   UNK d   1       9.448  20.989   0.412  0.00  0.00     0.089 A 
ATOM     11  O   UNK d   1      10.056  21.987  -0.298  0.00  0.00    -0.340 OA
ATOM     12  C   UNK d   1       8.307  21.151   1.200  0.00  0.00     0.076 A 
ATOM     13  C   UNK d   1       9.729  23.329   0.082  0.00  0.00     0.169 C 
ATOM     14  C   UNK d   1       8.243  23.534   0.320  0.00  0.00     0.121 C 
ATOM     15  C   UNK d   1       7.677  22.495   1.243  0.00  0.00     0.167 C 
ATOM     16  O   UNK d   1       6.705  22.755   1.944  0.00  0.00    -0.292 OA
ATOM     17  C   UNK d   1       7.831  20.054   1.928  0.00  0.00     0.085 A 
ATOM     18  C   UNK d   1       8.495  18.825   1.874  0.00  0.00     0.074 A 
BRANCH  13  19
ATOM     19  C   UNK d   1      10.657  23.867   1.170  0.00  0.00    -0.026 A 
ATOM     20  C   UNK d   1      10.444  25.090   1.823  0.00  0.00     0.049 A 
ATOM     21  C   UNK d   1      11.320  25.529   2.821  0.00  0.00     0.099 A 
ATOM     22  C   UNK d   1      12.437  24.772   3.195  0.00  0.00     0.101 A 
ATOM     23  C   UNK d   1      12.659  23.558   2.547  0.00  0.00     0.040 A 
ATOM     24  C   UNK d   1      11.780  23.112   1.549  0.00  0.00     0.012 A 
BRANCH  21  25
ATOM     25  O   UNK d   1      11.084  26.724   3.451  0.00  0.00    -0.358 OA
ATOM     26  H   UNK d   1      10.598  27.310   2.852  0.00  0.00     0.217 HD
ENDBRANCH  21  25
BRANCH  22  27
ATOM     27  O   UNK d   1      13.224  25.298   4.184  0.00  0.00    -0.353 OA
ATOM     28  C   UNK d   1      13.336  24.563   5.393  0.00  0.00     0.210 C 
ENDBRANCH  22  27
ENDBRANCH  13  19
BRANCH  17  29
ATOM     29  O   UNK d   1       6.721  20.162   2.717  0.00  0.00    -0.360 OA
ATOM     30  H   UNK d   1       6.869  19.728   3.572  0.00  0.00     0.217 HD
ENDBRANCH  17  29
ENDBRANCH   7   8
ENDBRANCH   6   7
BRANCH   5  31
ATOM     31  O   UNK d   1       8.547  15.033   1.136  0.00  0.00    -0.388 OA
ATOM     32  H   UNK d   1       8.850  14.685   0.275  0.00  0.00     0.210 HD
ENDBRANCH   5  31
BRANCH   2  33
ATOM     33  C   UNK d   1      12.223  16.264   5.281  0.00  0.00     0.205 C 
BRANCH  33  34
ATOM     34  O   UNK d   1      13.313  16.805   4.525  0.00  0.00    -0.356 OA
BRANCH  34  35
ATOM     35  C   UNK d   1      13.856  18.012   5.074  0.00  0.00     0.291 C 
ATOM     36  O   UNK d   1      14.074  17.832   6.481  0.00  0.00    -0.351 OA
ATOM     37  C   UNK d   1      14.038  19.013   7.285  0.00  0.00     0.152 C 
ATOM     38  C   UNK d   1      14.456  20.257   6.494  0.00  0.00     0.178 C 
ATOM     39  C   UNK d   1      14.936  18.756   8.491  0.00  0.00     0.042 C 
ATOM     40  C   UNK d   1      13.448  20.493   5.358  0.00  0.00     0.183 C 
ATOM     41  C   UNK d   1      12.891  19.181   4.778  0.00  0.00     0.204 C 
BRANCH  38  42
ATOM     42  O   UNK d   1      14.518  21.442   7.289  0.00  0.00    -0.390 OA
ATOM     43  H   UNK d   1      13.663  21.540   7.744  0.00  0.00     0.210 HD
ENDBRANCH  38  42
BRANCH  40  44
ATOM     44  O   UNK d   1      14.096  21.254   4.316  0.00  0.00    -0.390 OA
ATOM     45  H   UNK d   1      14.044  20.694   3.516  0.00  0.00     0.210 HD
ENDBRANCH  40  44
BRANCH  41  46
ATOM     46  O   UNK d   1      12.627  19.351   3.377  0.00  0.00    -0.388 OA
ATOM     47  H   UNK d   1      12.848  20.287   3.184  0.00  0.00     0.210 HD
ENDBRANCH  41  46
ENDBRANCH  34  35
ENDBRANCH  33  34
ENDBRANCH   2  33
BRANCH   4  48
ATOM     48  O   UNK d   1       9.489  12.948   2.811  0.00  0.00    -0.390 OA
ATOM     49  H   UNK d   1       8.718  12.884   2.217  0.00  0.00     0.210 HD
ENDBRANCH   4  48
BRANCH   3  50
ATOM     50  O   UNK d   1      10.535  13.806   5.342  0.00  0.00    -0.390 OA
ATOM     51  H   UNK d   1       9.977  13.042   5.106  0.00  0.00     0.210 HD
ENDBRANCH   3  50
TORSDOF 15
ENDMDL
MODEL 7
REMARK VINA RESULT:      -7.7      3.335      9.523
REMARK  15 active torsions:
REMARK  status: ('A' for Active; 'I' for Inactive)
REMARK    1  A    between atoms: O_2  and  C_21 
REMARK    2  A    between atoms: O_2  and  C_25 
REMARK    3  A    between atoms: O_4  and  C_17 
REMARK    4  A    between atoms: O_5  and  C_24 
REMARK    5  A    between atoms: O_5  and  C_28 
REMARK    6  A    between atoms: O_6  and  C_18 
REMARK    7  A    between atoms: O_7  and  C_19 
REMARK    8  A    between atoms: O_8  and  C_20 
REMARK    9  A    between atoms: O_9  and  C_22 
REMARK   10  A    between atoms: O_10  and  C_23 
REMARK   11  A    between atoms: O_12  and  C_35 
REMARK   12  A    between atoms: O_14  and  C_42 
REMARK   13  A    between atoms: O_15  and  C_40 
REMARK   14  A    between atoms: C_16  and  C_25 
REMARK   15  A    between atoms: C_33  and  C_37 
ROOT
ATOM      1  O   UNK d   1       8.626   0.814  21.602  0.00  0.00    -0.348 OA
ATOM      2  C   UNK d   1       7.515   1.344  20.871  0.00  0.00     0.180 C 
ATOM      3  C   UNK d   1       6.565   0.196  20.491  0.00  0.00     0.180 C 
ATOM      4  C   UNK d   1       7.332  -0.880  19.719  0.00  0.00     0.183 C 
ATOM      5  C   UNK d   1       8.575  -1.338  20.488  0.00  0.00     0.205 C 
ATOM      6  C   UNK d   1       9.422  -0.104  20.851  0.00  0.00     0.298 C 
ENDROOT
BRANCH   6   7
ATOM      7  O   UNK d   1      10.528  -0.528  21.659  0.00  0.00    -0.318 OA
BRANCH   7   8
ATOM      8  C   UNK d   1      10.243  -1.151  22.844  0.00  0.00     0.077 A 
ATOM      9  C   UNK d   1      10.286  -2.521  23.087  0.00  0.00     0.074 A 
ATOM     10  C   UNK d   1       9.880  -3.034  24.325  0.00  0.00     0.089 A 
ATOM     11  O   UNK d   1       9.870  -4.400  24.396  0.00  0.00    -0.340 OA
ATOM     12  C   UNK d   1       9.497  -2.179  25.360  0.00  0.00     0.076 A 
ATOM     13  C   UNK d   1       9.079  -4.978  25.441  0.00  0.00     0.169 C 
ATOM     14  C   UNK d   1       9.252  -4.275  26.776  0.00  0.00     0.121 C 
ATOM     15  C   UNK d   1       9.085  -2.789  26.649  0.00  0.00     0.167 C 
ATOM     16  O   UNK d   1       8.681  -2.129  27.602  0.00  0.00    -0.292 OA
ATOM     17  C   UNK d   1       9.492  -0.799  25.125  0.00  0.00     0.085 A 
ATOM     18  C   UNK d   1       9.853  -0.292  23.873  0.00  0.00     0.074 A 
BRANCH  13  19
ATOM     19  C   UNK d   1       7.637  -5.231  25.005  0.00  0.00    -0.026 A 
ATOM     20  C   UNK d   1       7.253  -5.358  23.661  0.00  0.00     0.049 A 
ATOM     21  C   UNK d   1       5.919  -5.602  23.319  0.00  0.00     0.099 A 
ATOM     22  C   UNK d   1       4.925  -5.717  24.298  0.00  0.00     0.101 A 
ATOM     23  C   UNK d   1       5.296  -5.586  25.635  0.00  0.00     0.040 A 
ATOM     24  C   UNK d   1       6.634  -5.346  25.982  0.00  0.00     0.012 A 
BRANCH  21  25
ATOM     25  O   UNK d   1       5.572  -5.733  21.999  0.00  0.00    -0.358 OA
ATOM     26  H   UNK d   1       5.099  -6.569  21.874  0.00  0.00     0.217 HD
ENDBRANCH  21  25
BRANCH  22  27
ATOM     27  O   UNK d   1       3.655  -5.958  23.848  0.00  0.00    -0.353 OA
ATOM     28  C   UNK d   1       2.577  -5.555  24.680  0.00  0.00     0.210 C 
ENDBRANCH  22  27
ENDBRANCH  13  19
BRANCH  17  29
ATOM     29  O   UNK d   1       9.120   0.080  26.102  0.00  0.00    -0.360 OA
ATOM     30  H   UNK d   1       9.210  -0.328  26.978  0.00  0.00     0.217 HD
ENDBRANCH  17  29
ENDBRANCH   7   8
ENDBRANCH   6   7
BRANCH   5  31
ATOM     31  O   UNK d   1       9.303  -2.259  19.662  0.00  0.00    -0.388 OA
ATOM     32  H   UNK d   1       8.625  -2.830  19.251  0.00  0.00     0.210 HD
ENDBRANCH   5  31
BRANCH   2  33
ATOM     33  C   UNK d   1       6.785   2.379  21.749  0.00  0.00     0.205 C 
BRANCH  33  34
ATOM     34  O   UNK d   1       7.281   3.709  21.556  0.00  0.00    -0.356 OA
BRANCH  34  35
ATOM     35  C   UNK d   1       8.150   4.161  22.602  0.00  0.00     0.291 C 
ATOM     36  O   UNK d   1       7.694   3.628  23.854  0.00  0.00    -0.351 OA
ATOM     37  C   UNK d   1       8.021   4.385  25.022  0.00  0.00     0.152 C 
ATOM     38  C   UNK d   1       9.311   5.192  24.839  0.00  0.00     0.178 C 
ATOM     39  C   UNK d   1       8.107   3.396  26.181  0.00  0.00     0.042 C 
ATOM     40  C   UNK d   1       9.104   6.222  23.717  0.00  0.00     0.183 C 
ATOM     41  C   UNK d   1       8.179   5.706  22.601  0.00  0.00     0.204 C 
BRANCH  38  42
ATOM     42  O   UNK d   1       9.716   5.890  26.017  0.00  0.00    -0.390 OA
ATOM     43  H   UNK d   1      10.687   5.844  26.072  0.00  0.00     0.210 HD
ENDBRANCH  38  42
BRANCH  40  44
ATOM     44  O   UNK d   1      10.394   6.568  23.166  0.00  0.00    -0.390 OA
ATOM     45  H   UNK d   1      10.839   5.713  22.995  0.00  0.00     0.210 HD
ENDBRANCH  40  44
BRANCH  41  46
ATOM     46  O   UNK d   1       8.592   6.260  21.343  0.00  0.00    -0.388 OA
ATOM     47  H   UNK d   1       8.787   7.203  21.528  0.00  0.00     0.210 HD
ENDBRANCH  41  46
ENDBRANCH  34  35
ENDBRANCH  33  34
ENDBRANCH   2  33
BRANCH   4  48
ATOM     48  O   UNK d   1       6.484  -2.017  19.477  0.00  0.00    -0.390 OA
ATOM     49  H   UNK d   1       6.704  -2.336  18.583  0.00  0.00     0.210 HD
ENDBRANCH   4  48
BRANCH   3  50
ATOM     50  O   UNK d   1       5.482   0.664  19.685  0.00  0.00    -0.390 OA
ATOM     51  H   UNK d   1       5.387   0.039  18.944  0.00  0.00     0.210 HD
ENDBRANCH   3  50
TORSDOF 15
ENDMDL
MODEL 8
REMARK VINA RESULT:      -7.5      5.298      8.459
REMARK  15 active torsions:
REMARK  status: ('A' for Active; 'I' for Inactive)
REMARK    1  A    between atoms: O_2  and  C_21 
REMARK    2  A    between atoms: O_2  and  C_25 
REMARK    3  A    between atoms: O_4  and  C_17 
REMARK    4  A    between atoms: O_5  and  C_24 
REMARK    5  A    between atoms: O_5  and  C_28 
REMARK    6  A    between atoms: O_6  and  C_18 
REMARK    7  A    between atoms: O_7  and  C_19 
REMARK    8  A    between atoms: O_8  and  C_20 
REMARK    9  A    between atoms: O_9  and  C_22 
REMARK   10  A    between atoms: O_10  and  C_23 
REMARK   11  A    between atoms: O_12  and  C_35 
REMARK   12  A    between atoms: O_14  and  C_42 
REMARK   13  A    between atoms: O_15  and  C_40 
REMARK   14  A    between atoms: C_16  and  C_25 
REMARK   15  A    between atoms: C_33  and  C_37 
ROOT
ATOM      1  O   UNK d   1       9.573   0.743  23.573  0.00  0.00    -0.348 OA
ATOM      2  C   UNK d   1       9.857  -0.233  22.565  0.00  0.00     0.180 C 
ATOM      3  C   UNK d   1      11.373  -0.490  22.523  0.00  0.00     0.180 C 
ATOM      4  C   UNK d   1      12.119   0.828  22.306  0.00  0.00     0.183 C 
ATOM      5  C   UNK d   1      11.702   1.879  23.339  0.00  0.00     0.205 C 
ATOM      6  C   UNK d   1      10.168   2.018  23.322  0.00  0.00     0.298 C 
ENDROOT
BRANCH   6   7
ATOM      7  O   UNK d   1       9.776   2.925  24.361  0.00  0.00    -0.318 OA
BRANCH   7   8
ATOM      8  C   UNK d   1       8.836   3.871  24.054  0.00  0.00     0.077 A 
ATOM      9  C   UNK d   1       7.592   4.025  24.660  0.00  0.00     0.074 A 
ATOM     10  C   UNK d   1       6.685   4.980  24.184  0.00  0.00     0.089 A 
ATOM     11  O   UNK d   1       5.463   4.955  24.798  0.00  0.00    -0.340 OA
ATOM     12  C   UNK d   1       7.038   5.842  23.145  0.00  0.00     0.076 A 
ATOM     13  C   UNK d   1       4.384   5.581  24.094  0.00  0.00     0.169 C 
ATOM     14  C   UNK d   1       4.765   6.923  23.494  0.00  0.00     0.121 C 
ATOM     15  C   UNK d   1       6.032   6.837  22.694  0.00  0.00     0.167 C 
ATOM     16  O   UNK d   1       6.224   7.603  21.756  0.00  0.00    -0.292 OA
ATOM     17  C   UNK d   1       8.304   5.711  22.563  0.00  0.00     0.085 A 
ATOM     18  C   UNK d   1       9.191   4.725  23.009  0.00  0.00     0.074 A 
BRANCH  13  19
ATOM     19  C   UNK d   1       3.663   4.614  23.157  0.00  0.00    -0.026 A 
ATOM     20  C   UNK d   1       3.493   4.859  21.787  0.00  0.00     0.049 A 
ATOM     21  C   UNK d   1       2.834   3.931  20.972  0.00  0.00     0.099 A 
ATOM     22  C   UNK d   1       2.319   2.740  21.493  0.00  0.00     0.101 A 
ATOM     23  C   UNK d   1       2.479   2.490  22.856  0.00  0.00     0.040 A 
ATOM     24  C   UNK d   1       3.143   3.416  23.675  0.00  0.00     0.012 A 
BRANCH  21  25
ATOM     25  O   UNK d   1       2.689   4.191  19.633  0.00  0.00    -0.358 OA
ATOM     26  H   UNK d   1       2.863   5.129  19.469  0.00  0.00     0.217 HD
ENDBRANCH  21  25
BRANCH  22  27
ATOM     27  O   UNK d   1       1.696   1.906  20.604  0.00  0.00    -0.353 OA
ATOM     28  C   UNK d   1       0.316   1.641  20.809  0.00  0.00     0.210 C 
ENDBRANCH  22  27
ENDBRANCH  13  19
BRANCH  17  29
ATOM     29  O   UNK d   1       8.697   6.526  21.540  0.00  0.00    -0.360 OA
ATOM     30  H   UNK d   1       9.663   6.520  21.452  0.00  0.00     0.217 HD
ENDBRANCH  17  29
ENDBRANCH   7   8
ENDBRANCH   6   7
BRANCH   5  31
ATOM     31  O   UNK d   1      12.352   3.117  23.012  0.00  0.00    -0.388 OA
ATOM     32  H   UNK d   1      11.770   3.549  22.356  0.00  0.00     0.210 HD
ENDBRANCH   5  31
BRANCH   2  33
ATOM     33  C   UNK d   1       9.099  -1.532  22.898  0.00  0.00     0.205 C 
BRANCH  33  34
ATOM     34  O   UNK d   1       7.887  -1.668  22.146  0.00  0.00    -0.356 OA
BRANCH  34  35
ATOM     35  C   UNK d   1       7.877  -0.921  20.924  0.00  0.00     0.291 C 
ATOM     36  O   UNK d   1       6.767  -0.011  20.940  0.00  0.00    -0.351 OA
ATOM     37  C   UNK d   1       6.241   0.371  19.666  0.00  0.00     0.152 C 
ATOM     38  C   UNK d   1       7.309   0.322  18.568  0.00  0.00     0.178 C 
ATOM     39  C   UNK d   1       5.637   1.761  19.835  0.00  0.00     0.042 C 
ATOM     40  C   UNK d   1       7.795  -1.127  18.404  0.00  0.00     0.183 C 
ATOM     41  C   UNK d   1       7.810  -1.902  19.732  0.00  0.00     0.204 C 
BRANCH  38  42
ATOM     42  O   UNK d   1       6.841   0.783  17.300  0.00  0.00    -0.390 OA
ATOM     43  H   UNK d   1       7.608   0.840  16.702  0.00  0.00     0.210 HD
ENDBRANCH  38  42
BRANCH  40  44
ATOM     44  O   UNK d   1       9.122  -1.106  17.832  0.00  0.00    -0.390 OA
ATOM     45  H   UNK d   1       9.330  -0.160  17.697  0.00  0.00     0.210 HD
ENDBRANCH  40  44
BRANCH  41  46
ATOM     46  O   UNK d   1       8.889  -2.848  19.723  0.00  0.00    -0.388 OA
ATOM     47  H   UNK d   1       9.146  -2.937  18.781  0.00  0.00     0.210 HD
ENDBRANCH  41  46
ENDBRANCH  34  35
ENDBRANCH  33  34
ENDBRANCH   2  33
BRANCH   4  48
ATOM     48  O   UNK d   1      13.539   0.616  22.400  0.00  0.00    -0.390 OA
ATOM     49  H   UNK d   1      13.902   1.399  22.854  0.00  0.00     0.210 HD
ENDBRANCH   4  48
BRANCH   3  50
ATOM     50  O   UNK d   1      11.716  -1.397  21.472  0.00  0.00    -0.390 OA
ATOM     51  H   UNK d   1      12.016  -0.858  20.718  0.00  0.00     0.210 HD
ENDBRANCH   3  50
TORSDOF 15
ENDMDL
MODEL 9
REMARK VINA RESULT:      -7.4     26.644     31.606
REMARK  15 active torsions:
REMARK  status: ('A' for Active; 'I' for Inactive)
REMARK    1  A    between atoms: O_2  and  C_21 
REMARK    2  A    between atoms: O_2  and  C_25 
REMARK    3  A    between atoms: O_4  and  C_17 
REMARK    4  A    between atoms: O_5  and  C_24 
REMARK    5  A    between atoms: O_5  and  C_28 
REMARK    6  A    between atoms: O_6  and  C_18 
REMARK    7  A    between atoms: O_7  and  C_19 
REMARK    8  A    between atoms: O_8  and  C_20 
REMARK    9  A    between atoms: O_9  and  C_22 
REMARK   10  A    between atoms: O_10  and  C_23 
REMARK   11  A    between atoms: O_12  and  C_35 
REMARK   12  A    between atoms: O_14  and  C_42 
REMARK   13  A    between atoms: O_15  and  C_40 
REMARK   14  A    between atoms: C_16  and  C_25 
REMARK   15  A    between atoms: C_33  and  C_37 
ROOT
ATOM      1  O   UNK d   1       8.967  16.912   4.533  0.00  0.00    -0.348 OA
ATOM      2  C   UNK d   1       9.817  16.135   5.384  0.00  0.00     0.180 C 
ATOM      3  C   UNK d   1      10.475  15.018   4.557  0.00  0.00     0.180 C 
ATOM      4  C   UNK d   1       9.398  14.182   3.861  0.00  0.00     0.183 C 
ATOM      5  C   UNK d   1       8.444  15.065   3.053  0.00  0.00     0.205 C 
ATOM      6  C   UNK d   1       7.884  16.169   3.970  0.00  0.00     0.298 C 
ENDROOT
BRANCH   6   7
ATOM      7  O   UNK d   1       7.074  17.053   3.184  0.00  0.00    -0.318 OA
BRANCH   7   8
ATOM      8  C   UNK d   1       7.702  18.091   2.550  0.00  0.00     0.077 A 
ATOM      9  C   UNK d   1       7.750  19.414   2.981  0.00  0.00     0.074 A 
ATOM     10  C   UNK d   1       8.351  20.397   2.186  0.00  0.00     0.089 A 
ATOM     11  O   UNK d   1       8.237  21.669   2.676  0.00  0.00    -0.340 OA
ATOM     12  C   UNK d   1       8.977  20.058   0.985  0.00  0.00     0.076 A 
ATOM     13  C   UNK d   1       8.435  22.732   1.737  0.00  0.00     0.169 C 
ATOM     14  C   UNK d   1       9.631  22.508   0.828  0.00  0.00     0.121 C 
ATOM     15  C   UNK d   1       9.602  21.148   0.194  0.00  0.00     0.167 C 
ATOM     16  O   UNK d   1      10.129  20.964  -0.898  0.00  0.00    -0.292 OA
ATOM     17  C   UNK d   1       8.961  18.720   0.573  0.00  0.00     0.085 A 
ATOM     18  C   UNK d   1       8.319  17.748   1.346  0.00  0.00     0.074 A 
BRANCH  13  19
ATOM     19  C   UNK d   1       7.138  23.142   1.042  0.00  0.00    -0.026 A 
ATOM     20  C   UNK d   1       7.047  23.368  -0.340  0.00  0.00     0.049 A 
ATOM     21  C   UNK d   1       5.830  23.730  -0.926  0.00  0.00     0.099 A 
ATOM     22  C   UNK d   1       4.670  23.887  -0.159  0.00  0.00     0.101 A 
ATOM     23  C   UNK d   1       4.752  23.670   1.216  0.00  0.00     0.040 A 
ATOM     24  C   UNK d   1       5.970  23.303   1.806  0.00  0.00     0.012 A 
BRANCH  21  25
ATOM     25  O   UNK d   1       5.766  23.935  -2.280  0.00  0.00    -0.358 OA
ATOM     26  H   UNK d   1       5.507  23.110  -2.716  0.00  0.00     0.217 HD
ENDBRANCH  21  25
BRANCH  22  27
ATOM     27  O   UNK d   1       3.535  24.241  -0.839  0.00  0.00    -0.353 OA
ATOM     28  C   UNK d   1       2.305  24.194  -0.131  0.00  0.00     0.210 C 
ENDBRANCH  22  27
ENDBRANCH  13  19
BRANCH  17  29
ATOM     29  O   UNK d   1       9.553  18.337  -0.597  0.00  0.00    -0.360 OA
ATOM     30  H   UNK d   1       9.196  18.846  -1.342  0.00  0.00     0.217 HD
ENDBRANCH  17  29
ENDBRANCH   7   8
ENDBRANCH   6   7
BRANCH   5  31
ATOM     31  O   UNK d   1       7.400  14.234   2.522  0.00  0.00    -0.388 OA
ATOM     32  H   UNK d   1       6.965  14.774   1.834  0.00  0.00     0.210 HD
ENDBRANCH   5  31
BRANCH   2  33
ATOM     33  C   UNK d   1      10.890  17.056   5.995  0.00  0.00     0.205 C 
BRANCH  33  34
ATOM     34  O   UNK d   1      12.176  16.876   5.391  0.00  0.00    -0.356 OA
BRANCH  34  35
ATOM     35  C   UNK d   1      12.800  18.098   4.980  0.00  0.00     0.291 C 
ATOM     36  O   UNK d   1      13.262  18.804   6.142  0.00  0.00    -0.351 OA
ATOM     37  C   UNK d   1      13.361  20.225   6.023  0.00  0.00     0.152 C 
ATOM     38  C   UNK d   1      13.626  20.662   4.579  0.00  0.00     0.178 C 
ATOM     39  C   UNK d   1      14.458  20.675   6.983  0.00  0.00     0.042 C 
ATOM     40  C   UNK d   1      12.433  20.251   3.702  0.00  0.00     0.183 C 
ATOM     41  C   UNK d   1      11.791  18.929   4.156  0.00  0.00     0.204 C 
BRANCH  38  42
ATOM     42  O   UNK d   1      13.819  22.071   4.438  0.00  0.00    -0.390 OA
ATOM     43  H   UNK d   1      14.080  22.424   5.307  0.00  0.00     0.210 HD
ENDBRANCH  38  42
BRANCH  40  44
ATOM     44  O   UNK d   1      12.884  20.133   2.335  0.00  0.00    -0.390 OA
ATOM     45  H   UNK d   1      13.854  20.016   2.392  0.00  0.00     0.210 HD
ENDBRANCH  40  44
BRANCH  41  46
ATOM     46  O   UNK d   1      11.284  18.224   3.013  0.00  0.00    -0.388 OA
ATOM     47  H   UNK d   1      10.698  18.863   2.555  0.00  0.00     0.210 HD
ENDBRANCH  41  46
ENDBRANCH  34  35
ENDBRANCH  33  34
ENDBRANCH   2  33
BRANCH   4  48
ATOM     48  O   UNK d   1      10.008  13.221   2.981  0.00  0.00    -0.390 OA
ATOM     49  H   UNK d   1      10.939  13.148   3.261  0.00  0.00     0.210 HD
ENDBRANCH   4  48
BRANCH   3  50
ATOM     50  O   UNK d   1      11.269  14.162   5.381  0.00  0.00    -0.390 OA
ATOM     51  H   UNK d   1      12.202  14.339   5.160  0.00  0.00     0.210 HD
ENDBRANCH   3  50
TORSDOF 15
ENDMDL
