REMARK  1 active torsions:
REMARK  status: ('A' for Active; 'I' for Inactive)
REMARK    1  A    between atoms: C_3  and  C_7 
ROOT
ATOM      1  N   LIG d   1      21.268 -18.703   0.465  0.00  0.00    -0.067 N 
ATOM      2  C   LIG d   1      21.482 -18.952  -1.021  0.00  0.00     0.222 C 
ATOM      3  C   LIG d   1      22.999 -19.156  -1.083  0.00  0.00     0.040 C 
ATOM      4  C   LIG d   1      23.419 -19.725   0.270  0.00  0.00     0.030 C 
ATOM      5  C   LIG d   1      22.213 -19.621   1.188  0.00  0.00     0.235 C 
ATOM      6  C   LIG d   1      19.859 -18.759   0.964  0.00  0.00     0.270 C 
ATOM      7  H   LIG d   1      21.596 -17.745   0.640  0.00  0.00     0.280 HD
ENDROOT
BRANCH   2   8
ATOM      8  C   LIG d   1      20.643 -20.055  -1.617  0.00  0.00    -0.010 A 
ATOM      9  C   LIG d   1      20.761 -21.368  -1.135  0.00  0.00     0.012 A 
ATOM     10  C   LIG d   1      20.011 -22.397  -1.701  0.00  0.00     0.020 A 
ATOM     11  C   LIG d   1      19.163 -22.088  -2.746  0.00  0.00     0.116 A 
ATOM     12  N   LIG d   1      19.024 -20.841  -3.243  0.00  0.00    -0.273 NA
ATOM     13  C   LIG d   1      19.749 -19.859  -2.667  0.00  0.00     0.125 A 
ENDBRANCH   2   8
TORSDOF 1
