MODEL 1
REMARK VINA RESULT:      -6.7      0.000      0.000
REMARK  2 active torsions:
REMARK  status: ('A' for Active; 'I' for Inactive)
REMARK    1  A    between atoms: O_1  and  C_9 
REMARK    2  A    between atoms: N_3  and  C_4 
REMARK       I    between atoms: N_3  and  C_10 
ROOT
ATOM      1  C   LIG d   1       6.358  -0.362  -6.541  0.00  0.00     0.034 A 
ATOM      2  C   LIG d   1       6.120  -1.662  -6.088  0.00  0.00     0.032 A 
ATOM      3  C   LIG d   1       6.179  -0.076  -7.901  0.00  0.00     0.032 A 
ATOM      4  C   LIG d   1       5.708  -2.662  -6.977  0.00  0.00     0.039 A 
ATOM      5  C   LIG d   1       5.768  -1.072  -8.791  0.00  0.00     0.039 A 
ATOM      6  C   LIG d   1       5.536  -2.357  -8.322  0.00  0.00     0.065 A 
ENDROOT
BRANCH   1   7
ATOM      7  N   LIG d   1       6.772   0.699  -5.710  0.00  0.00    -0.328 N 
ATOM      8  C   LIG d   1       6.185   1.945  -5.578  0.00  0.00     0.218 C 
ATOM      9  O   LIG d   1       5.190   2.362  -6.160  0.00  0.00    -0.274 OA
ATOM     10  C   LIG d   1       6.927   2.811  -4.591  0.00  0.00     0.117 C 
ATOM     11  H   LIG d   1       7.594   0.524  -5.147  0.00  0.00     0.169 HD
ENDBRANCH   1   7
BRANCH   6  12
ATOM     12  O   LIG d   1       5.136  -3.300  -9.221  0.00  0.00    -0.361 OA
ATOM     13  H   LIG d   1       4.724  -4.034  -8.735  0.00  0.00     0.217 HD
ENDBRANCH   6  12
TORSDOF 2
ENDMDL
MODEL 2
REMARK VINA RESULT:      -5.8      2.536      5.120
REMARK  2 active torsions:
REMARK  status: ('A' for Active; 'I' for Inactive)
REMARK    1  A    between atoms: O_1  and  C_9 
REMARK    2  A    between atoms: N_3  and  C_4 
REMARK       I    between atoms: N_3  and  C_10 
ROOT
ATOM      1  C   LIG d   1       5.474  -2.549  -7.434  0.00  0.00     0.034 A 
ATOM      2  C   LIG d   1       5.841  -2.837  -6.117  0.00  0.00     0.032 A 
ATOM      3  C   LIG d   1       5.717  -1.264  -7.939  0.00  0.00     0.032 A 
ATOM      4  C   LIG d   1       6.443  -1.860  -5.316  0.00  0.00     0.039 A 
ATOM      5  C   LIG d   1       6.318  -0.287  -7.141  0.00  0.00     0.039 A 
ATOM      6  C   LIG d   1       6.676  -0.592  -5.836  0.00  0.00     0.065 A 
ENDROOT
BRANCH   1   7
ATOM      7  N   LIG d   1       4.866  -3.478  -8.304  0.00  0.00    -0.328 N 
ATOM      8  C   LIG d   1       3.770  -4.282  -8.046  0.00  0.00     0.218 C 
ATOM      9  O   LIG d   1       3.117  -4.337  -7.011  0.00  0.00    -0.274 OA
ATOM     10  C   LIG d   1       3.422  -5.150  -9.229  0.00  0.00     0.117 C 
ATOM     11  H   LIG d   1       5.284  -3.563  -9.221  0.00  0.00     0.169 HD
ENDBRANCH   1   7
BRANCH   6  12
ATOM     12  O   LIG d   1       7.259   0.388  -5.091  0.00  0.00    -0.361 OA
ATOM     13  H   LIG d   1       8.163   0.527  -5.419  0.00  0.00     0.217 HD
ENDBRANCH   6  12
TORSDOF 2
ENDMDL
MODEL 3
REMARK VINA RESULT:      -5.6      3.052      5.754
REMARK  2 active torsions:
REMARK  status: ('A' for Active; 'I' for Inactive)
REMARK    1  A    between atoms: O_1  and  C_9 
REMARK    2  A    between atoms: N_3  and  C_4 
REMARK       I    between atoms: N_3  and  C_10 
ROOT
ATOM      1  C   LIG d   1       5.082  -3.221  -8.692  0.00  0.00     0.034 A 
ATOM      2  C   LIG d   1       5.239  -2.011  -9.372  0.00  0.00     0.032 A 
ATOM      3  C   LIG d   1       5.539  -3.319  -7.371  0.00  0.00     0.032 A 
ATOM      4  C   LIG d   1       5.841  -0.914  -8.744  0.00  0.00     0.039 A 
ATOM      5  C   LIG d   1       6.140  -2.226  -6.742  0.00  0.00     0.039 A 
ATOM      6  C   LIG d   1       6.287  -1.032  -7.433  0.00  0.00     0.065 A 
ENDROOT
BRANCH   1   7
ATOM      7  N   LIG d   1       4.485  -4.369  -9.253  0.00  0.00    -0.328 N 
ATOM      8  C   LIG d   1       3.276  -4.945  -8.906  0.00  0.00     0.218 C 
ATOM      9  O   LIG d   1       2.492  -4.563  -8.045  0.00  0.00    -0.274 OA
ATOM     10  C   LIG d   1       2.983  -6.172  -9.733  0.00  0.00     0.117 C 
ATOM     11  H   LIG d   1       5.005  -4.820  -9.994  0.00  0.00     0.169 HD
ENDBRANCH   1   7
BRANCH   6  12
ATOM     12  O   LIG d   1       6.878   0.011  -6.785  0.00  0.00    -0.361 OA
ATOM     13  H   LIG d   1       6.181   0.598  -6.448  0.00  0.00     0.217 HD
ENDBRANCH   6  12
TORSDOF 2
ENDMDL
MODEL 4
REMARK VINA RESULT:      -5.0     26.870     28.382
REMARK  2 active torsions:
REMARK  status: ('A' for Active; 'I' for Inactive)
REMARK    1  A    between atoms: O_1  and  C_9 
REMARK    2  A    between atoms: N_3  and  C_4 
REMARK       I    between atoms: N_3  and  C_10 
ROOT
ATOM      1  C   LIG d   1       7.138  27.174 -12.569  0.00  0.00     0.034 A 
ATOM      2  C   LIG d   1       6.890  25.920 -12.006  0.00  0.00     0.032 A 
ATOM      3  C   LIG d   1       7.322  28.274 -11.720  0.00  0.00     0.032 A 
ATOM      4  C   LIG d   1       6.828  25.763 -10.616  0.00  0.00     0.039 A 
ATOM      5  C   LIG d   1       7.260  28.120 -10.332  0.00  0.00     0.039 A 
ATOM      6  C   LIG d   1       7.013  26.866  -9.791  0.00  0.00     0.065 A 
ENDROOT
BRANCH   1   7
ATOM      7  N   LIG d   1       7.218  27.413 -13.956  0.00  0.00    -0.328 N 
ATOM      8  C   LIG d   1       6.174  27.654 -14.832  0.00  0.00     0.218 C 
ATOM      9  O   LIG d   1       4.979  27.707 -14.565  0.00  0.00    -0.274 OA
ATOM     10  C   LIG d   1       6.663  27.856 -16.244  0.00  0.00     0.117 C 
ATOM     11  H   LIG d   1       8.148  27.406 -14.353  0.00  0.00     0.169 HD
ENDBRANCH   1   7
BRANCH   6  12
ATOM     12  O   LIG d   1       6.961  26.758  -8.434  0.00  0.00    -0.361 OA
ATOM     13  H   LIG d   1       7.870  26.751  -8.090  0.00  0.00     0.217 HD
ENDBRANCH   6  12
TORSDOF 2
ENDMDL
MODEL 5
REMARK VINA RESULT:      -4.9     25.873     27.526
REMARK  2 active torsions:
REMARK  status: ('A' for Active; 'I' for Inactive)
REMARK    1  A    between atoms: O_1  and  C_9 
REMARK    2  A    between atoms: N_3  and  C_4 
REMARK       I    between atoms: N_3  and  C_10 
ROOT
ATOM      1  C   LIG d   1       7.046   0.145  20.420  0.00  0.00     0.034 A 
ATOM      2  C   LIG d   1       6.868   0.218  19.036  0.00  0.00     0.032 A 
ATOM      3  C   LIG d   1       6.144   0.820  21.255  0.00  0.00     0.032 A 
ATOM      4  C   LIG d   1       5.808   0.951  18.492  0.00  0.00     0.039 A 
ATOM      5  C   LIG d   1       5.084   1.552  20.713  0.00  0.00     0.039 A 
ATOM      6  C   LIG d   1       4.925   1.613  19.337  0.00  0.00     0.065 A 
ENDROOT
BRANCH   1   7
ATOM      7  N   LIG d   1       8.085  -0.574  21.045  0.00  0.00    -0.328 N 
ATOM      8  C   LIG d   1       9.321  -0.094  21.443  0.00  0.00     0.218 C 
ATOM      9  O   LIG d   1       9.744   1.051  21.329  0.00  0.00    -0.274 OA
ATOM     10  C   LIG d   1      10.165  -1.174  22.071  0.00  0.00     0.117 C 
ATOM     11  H   LIG d   1       7.903  -1.553  21.220  0.00  0.00     0.169 HD
ENDBRANCH   1   7
BRANCH   6  12
ATOM     12  O   LIG d   1       3.879   2.338  18.848  0.00  0.00    -0.361 OA
ATOM     13  H   LIG d   1       3.912   2.310  17.878  0.00  0.00     0.217 HD
ENDBRANCH   6  12
TORSDOF 2
ENDMDL
MODEL 6
REMARK VINA RESULT:      -4.9     14.192     15.851
REMARK  2 active torsions:
REMARK  status: ('A' for Active; 'I' for Inactive)
REMARK    1  A    between atoms: O_1  and  C_9 
REMARK    2  A    between atoms: N_3  and  C_4 
REMARK       I    between atoms: N_3  and  C_10 
ROOT
ATOM      1  C   LIG d   1      19.161   7.404  -3.086  0.00  0.00     0.034 A 
ATOM      2  C   LIG d   1      17.886   6.997  -3.489  0.00  0.00     0.032 A 
ATOM      3  C   LIG d   1      20.242   7.204  -3.955  0.00  0.00     0.032 A 
ATOM      4  C   LIG d   1      17.692   6.402  -4.741  0.00  0.00     0.039 A 
ATOM      5  C   LIG d   1      20.050   6.609  -5.205  0.00  0.00     0.039 A 
ATOM      6  C   LIG d   1      18.777   6.213  -5.588  0.00  0.00     0.065 A 
ENDROOT
BRANCH   1   7
ATOM      7  N   LIG d   1      19.438   8.012  -1.845  0.00  0.00    -0.328 N 
ATOM      8  C   LIG d   1      19.752   9.339  -1.607  0.00  0.00     0.218 C 
ATOM      9  O   LIG d   1      19.845  10.239  -2.434  0.00  0.00    -0.274 OA
ATOM     10  C   LIG d   1      19.989   9.605  -0.142  0.00  0.00     0.117 C 
ATOM     11  H   LIG d   1      19.403   7.405  -1.037  0.00  0.00     0.169 HD
ENDBRANCH   1   7
BRANCH   6  12
ATOM     12  O   LIG d   1      18.632   5.637  -6.815  0.00  0.00    -0.361 OA
ATOM     13  H   LIG d   1      19.024   6.227  -7.480  0.00  0.00     0.217 HD
ENDBRANCH   6  12
TORSDOF 2
ENDMDL
MODEL 7
REMARK VINA RESULT:      -4.8     26.334     28.101
REMARK  2 active torsions:
REMARK  status: ('A' for Active; 'I' for Inactive)
REMARK    1  A    between atoms: O_1  and  C_9 
REMARK    2  A    between atoms: N_3  and  C_4 
REMARK       I    between atoms: N_3  and  C_10 
ROOT
ATOM      1  C   LIG d   1       7.679  -0.531  21.377  0.00  0.00     0.034 A 
ATOM      2  C   LIG d   1       8.214   0.203  20.316  0.00  0.00     0.032 A 
ATOM      3  C   LIG d   1       6.492  -1.248  21.174  0.00  0.00     0.032 A 
ATOM      4  C   LIG d   1       7.576   0.222  19.070  0.00  0.00     0.039 A 
ATOM      5  C   LIG d   1       5.854  -1.231  19.931  0.00  0.00     0.039 A 
ATOM      6  C   LIG d   1       6.400  -0.496  18.889  0.00  0.00     0.065 A 
ENDROOT
BRANCH   1   7
ATOM      7  N   LIG d   1       8.262  -0.603  22.659  0.00  0.00    -0.328 N 
ATOM      8  C   LIG d   1       9.507  -1.106  22.992  0.00  0.00     0.218 C 
ATOM      9  O   LIG d   1      10.342  -1.583  22.232  0.00  0.00    -0.274 OA
ATOM     10  C   LIG d   1       9.770  -1.014  24.474  0.00  0.00     0.117 C 
ATOM     11  H   LIG d   1       7.701  -0.244  23.420  0.00  0.00     0.169 HD
ENDBRANCH   1   7
BRANCH   6  12
ATOM     12  O   LIG d   1       5.748  -0.505  17.693  0.00  0.00    -0.361 OA
ATOM     13  H   LIG d   1       6.389  -0.306  16.990  0.00  0.00     0.217 HD
ENDBRANCH   6  12
TORSDOF 2
ENDMDL
MODEL 8
REMARK VINA RESULT:      -4.8     16.007     18.481
REMARK  2 active torsions:
REMARK  status: ('A' for Active; 'I' for Inactive)
REMARK    1  A    between atoms: O_1  and  C_9 
REMARK    2  A    between atoms: N_3  and  C_4 
REMARK       I    between atoms: N_3  and  C_10 
ROOT
ATOM      1  C   LIG d   1      20.442   8.769  -1.444  0.00  0.00     0.034 A 
ATOM      2  C   LIG d   1      19.381   9.393  -0.783  0.00  0.00     0.032 A 
ATOM      3  C   LIG d   1      21.669   8.637  -0.779  0.00  0.00     0.032 A 
ATOM      4  C   LIG d   1      19.538   9.877   0.520  0.00  0.00     0.039 A 
ATOM      5  C   LIG d   1      21.829   9.119   0.523  0.00  0.00     0.039 A 
ATOM      6  C   LIG d   1      20.763   9.735   1.162  0.00  0.00     0.065 A 
ENDROOT
BRANCH   1   7
ATOM      7  N   LIG d   1      20.363   8.255  -2.754  0.00  0.00    -0.328 N 
ATOM      8  C   LIG d   1      19.651   7.148  -3.183  0.00  0.00     0.218 C 
ATOM      9  O   LIG d   1      18.951   6.407  -2.503  0.00  0.00    -0.274 OA
ATOM     10  C   LIG d   1      19.822   6.912  -4.663  0.00  0.00     0.117 C 
ATOM     11  H   LIG d   1      20.889   8.755  -3.458  0.00  0.00     0.169 HD
ENDBRANCH   1   7
BRANCH   6  12
ATOM     12  O   LIG d   1      20.959  10.192   2.432  0.00  0.00    -0.361 OA
ATOM     13  H   LIG d   1      21.773  10.723   2.445  0.00  0.00     0.217 HD
ENDBRANCH   6  12
TORSDOF 2
ENDMDL
MODEL 9
REMARK VINA RESULT:      -4.7     10.233     10.741
REMARK  2 active torsions:
REMARK  status: ('A' for Active; 'I' for Inactive)
REMARK    1  A    between atoms: O_1  and  C_9 
REMARK    2  A    between atoms: N_3  and  C_4 
REMARK       I    between atoms: N_3  and  C_10 
ROOT
ATOM      1  C   LIG d   1      15.698  -1.725  -4.015  0.00  0.00     0.034 A 
ATOM      2  C   LIG d   1      14.629  -1.013  -3.465  0.00  0.00     0.032 A 
ATOM      3  C   LIG d   1      15.932  -1.637  -5.394  0.00  0.00     0.032 A 
ATOM      4  C   LIG d   1      13.806  -0.225  -4.277  0.00  0.00     0.039 A 
ATOM      5  C   LIG d   1      15.112  -0.850  -6.207  0.00  0.00     0.039 A 
ATOM      6  C   LIG d   1      14.055  -0.150  -5.642  0.00  0.00     0.065 A 
ENDROOT
BRANCH   1   7
ATOM      7  N   LIG d   1      16.573  -2.538  -3.265  0.00  0.00    -0.328 N 
ATOM      8  C   LIG d   1      17.757  -2.163  -2.655  0.00  0.00     0.218 C 
ATOM      9  O   LIG d   1      18.268  -1.049  -2.648  0.00  0.00    -0.274 OA
ATOM     10  C   LIG d   1      18.414  -3.323  -1.949  0.00  0.00     0.117 C 
ATOM     11  H   LIG d   1      16.299  -3.507  -3.165  0.00  0.00     0.169 HD
ENDBRANCH   1   7
BRANCH   6  12
ATOM     12  O   LIG d   1      13.278   0.606  -6.469  0.00  0.00    -0.361 OA
ATOM     13  H   LIG d   1      13.711   1.467  -6.595  0.00  0.00     0.217 HD
ENDBRANCH   6  12
TORSDOF 2
ENDMDL
