MODEL 1
REMARK minimizedAffinity -9.08145332REMARK CNNscore 0.433698297REMARK CNNaffinity 4.8717165REMARK  15 active torsions:
REMARK  status: ('A' for Active; 'I' for Inactive)
REMARK    1  A    between atoms: O_2  and  C_21 
REMARK    2  A    between atoms: O_2  and  C_25 
REMARK    3  A    between atoms: O_4  and  C_17 
REMARK    4  A    between atoms: O_5  and  C_24 
REMARK    5  A    between atoms: O_5  and  C_28 
REMARK    6  A    between atoms: O_6  and  C_18 
REMARK    7  A    between atoms: O_7  and  C_19 
REMARK    8  A    between atoms: O_8  and  C_20 
REMARK    9  A    between atoms: O_9  and  C_22 
REMARK   10  A    between atoms: O_10  and  C_23 
REMARK   11  A    between atoms: O_12  and  C_35 
REMARK   12  A    between atoms: O_14  and  C_42 
REMARK   13  A    between atoms: O_15  and  C_40 
REMARK   14  A    between atoms: C_16  and  C_25 
REMARK   15  A    between atoms: C_33  and  C_37 
ROOT
ATOM      1  O   UNK d   1       6.181  21.453  -0.933  0.00  0.00    -0.348 OA
ATOM      2  C   UNK d   1       5.878  22.848  -0.825  0.00  0.00     0.180 C 
ATOM      3  C   UNK d   1       7.046  23.665  -1.401  0.00  0.00     0.180 C 
ATOM      4  C   UNK d   1       8.349  23.280  -0.696  0.00  0.00     0.183 C 
ATOM      5  C   UNK d   1       8.577  21.766  -0.738  0.00  0.00     0.205 C 
ATOM      6  C   UNK d   1       7.329  21.055  -0.181  0.00  0.00     0.298 C 
ENDROOT
BRANCH   6   7
ATOM      7  O   UNK d   1       7.507  19.639  -0.320  0.00  0.00    -0.318 OA
BRANCH   7   8
ATOM      8  C   UNK d   1       7.932  18.944   0.780  0.00  0.00     0.077 A 
ATOM      9  C   UNK d   1       8.868  17.913   0.794  0.00  0.00     0.074 A 
ATOM     10  C   UNK d   1       9.145  17.223   1.981  0.00  0.00     0.089 A 
ATOM     11  O   UNK d   1      10.002  16.168   1.836  0.00  0.00    -0.340 OA
ATOM     12  C   UNK d   1       8.545  17.603   3.182  0.00  0.00     0.076 A 
ATOM     13  C   UNK d   1       9.987  15.187   2.879  0.00  0.00     0.169 C 
ATOM     14  C   UNK d   1       9.965  15.798   4.269  0.00  0.00     0.121 C 
ATOM     15  C   UNK d   1       8.888  16.834   4.405  0.00  0.00     0.167 C 
ATOM     16  O   UNK d   1       8.376  17.053   5.498  0.00  0.00    -0.292 OA
ATOM     17  C   UNK d   1       7.633  18.666   3.173  0.00  0.00     0.085 A 
ATOM     18  C   UNK d   1       7.323  19.323   1.978  0.00  0.00     0.074 A 
BRANCH  13  19
ATOM     19  C   UNK d   1       8.965  14.081   2.622  0.00  0.00    -0.026 A 
ATOM     20  C   UNK d   1       8.849  12.942   3.432  0.00  0.00     0.049 A 
ATOM     21  C   UNK d   1       7.886  11.965   3.157  0.00  0.00     0.099 A 
ATOM     22  C   UNK d   1       7.016  12.085   2.068  0.00  0.00     0.101 A 
ATOM     23  C   UNK d   1       7.128  13.212   1.254  0.00  0.00     0.040 A 
ATOM     24  C   UNK d   1       8.090  14.195   1.529  0.00  0.00     0.012 A 
BRANCH  21  25
ATOM     25  O   UNK d   1       7.787  10.865   3.971  0.00  0.00    -0.358 OA
ATOM     26  H   UNK d   1       8.475  10.908   4.650  0.00  0.00     0.217 HD
ENDBRANCH  21  25
BRANCH  22  27
ATOM     27  O   UNK d   1       6.113  11.071   1.896  0.00  0.00    -0.353 OA
ATOM     28  C   UNK d   1       4.768  11.319   2.276  0.00  0.00     0.210 C 
ENDBRANCH  22  27
ENDBRANCH  13  19
BRANCH  17  29
ATOM     29  O   UNK d   1       7.015  19.073   4.320  0.00  0.00    -0.360 OA
ATOM     30  H   UNK d   1       6.403  19.803   4.136  0.00  0.00     0.217 HD
ENDBRANCH  17  29
ENDBRANCH   7   8
ENDBRANCH   6   7
BRANCH   5  31
ATOM     31  O   UNK d   1       9.750  21.464   0.033  0.00  0.00    -0.388 OA
ATOM     32  H   UNK d   1      10.458  22.023  -0.343  0.00  0.00     0.210 HD
ENDBRANCH   5  31
BRANCH   2  33
ATOM     33  C   UNK d   1       4.581  23.140  -1.603  0.00  0.00     0.205 C 
BRANCH  33  34
ATOM     34  O   UNK d   1       4.218  24.525  -1.564  0.00  0.00    -0.356 OA
BRANCH  34  35
ATOM     35  C   UNK d   1       3.000  24.785  -0.855  0.00  0.00     0.291 C 
ATOM     36  O   UNK d   1       2.513  23.558  -0.293  0.00  0.00    -0.351 OA
ATOM     37  C   UNK d   1       1.102  23.473  -0.080  0.00  0.00     0.152 C 
ATOM     38  C   UNK d   1       0.477  24.851   0.167  0.00  0.00     0.178 C 
ATOM     39  C   UNK d   1       0.886  22.514   1.086  0.00  0.00     0.042 C 
ATOM     40  C   UNK d   1       0.660  25.718  -1.088  0.00  0.00     0.183 C 
ATOM     41  C   UNK d   1       1.981  25.429  -1.822  0.00  0.00     0.204 C 
BRANCH  38  42
ATOM     42  O   UNK d   1      -0.918  24.796   0.472  0.00  0.00    -0.390 OA
ATOM     43  H   UNK d   1      -1.013  24.421   1.366  0.00  0.00     0.210 HD
ENDBRANCH  38  42
BRANCH  40  44
ATOM     44  O   UNK d   1       0.608  27.109  -0.700  0.00  0.00    -0.390 OA
ATOM     45  H   UNK d   1      -0.261  27.223  -0.264  0.00  0.00     0.210 HD
ENDBRANCH  40  44
BRANCH  41  46
ATOM     46  O   UNK d   1       2.467  26.636  -2.428  0.00  0.00    -0.388 OA
ATOM     47  H   UNK d   1       2.103  27.364  -1.881  0.00  0.00     0.210 HD
ENDBRANCH  41  46
ENDBRANCH  34  35
ENDBRANCH  33  34
ENDBRANCH   2  33
BRANCH   4  48
ATOM     48  O   UNK d   1       9.464  23.940  -1.319  0.00  0.00    -0.390 OA
ATOM     49  H   UNK d   1       9.446  24.862  -1.002  0.00  0.00     0.210 HD
ENDBRANCH   4  48
BRANCH   3  50
ATOM     50  O   UNK d   1       6.827  25.068  -1.238  0.00  0.00    -0.390 OA
ATOM     51  H   UNK d   1       7.377  25.521  -1.903  0.00  0.00     0.210 HD
ENDBRANCH   3  50
TORSDOF 15
ENDMDL
MODEL 2
REMARK minimizedAffinity -8.74623394REMARK CNNscore 0.335784256REMARK CNNaffinity 4.96763515REMARK  15 active torsions:
REMARK  status: ('A' for Active; 'I' for Inactive)
REMARK    1  A    between atoms: O_2  and  C_21 
REMARK    2  A    between atoms: O_2  and  C_25 
REMARK    3  A    between atoms: O_4  and  C_17 
REMARK    4  A    between atoms: O_5  and  C_24 
REMARK    5  A    between atoms: O_5  and  C_28 
REMARK    6  A    between atoms: O_6  and  C_18 
REMARK    7  A    between atoms: O_7  and  C_19 
REMARK    8  A    between atoms: O_8  and  C_20 
REMARK    9  A    between atoms: O_9  and  C_22 
REMARK   10  A    between atoms: O_10  and  C_23 
REMARK   11  A    between atoms: O_12  and  C_35 
REMARK   12  A    between atoms: O_14  and  C_42 
REMARK   13  A    between atoms: O_15  and  C_40 
REMARK   14  A    between atoms: C_16  and  C_25 
REMARK   15  A    between atoms: C_33  and  C_37 
ROOT
ATOM      1  O   UNK d   1       6.340  14.310   3.417  0.00  0.00    -0.348 OA
ATOM      2  C   UNK d   1       5.234  13.536   2.939  0.00  0.00     0.180 C 
ATOM      3  C   UNK d   1       5.766  12.295   2.203  0.00  0.00     0.180 C 
ATOM      4  C   UNK d   1       6.725  12.720   1.089  0.00  0.00     0.183 C 
ATOM      5  C   UNK d   1       7.828  13.638   1.625  0.00  0.00     0.205 C 
ATOM      6  C   UNK d   1       7.179  14.815   2.377  0.00  0.00     0.298 C 
ENDROOT
BRANCH   6   7
ATOM      7  O   UNK d   1       8.217  15.613   2.965  0.00  0.00    -0.318 OA
BRANCH   7   8
ATOM      8  C   UNK d   1       8.332  16.910   2.544  0.00  0.00     0.077 A 
ATOM      9  C   UNK d   1       9.450  17.488   1.949  0.00  0.00     0.074 A 
ATOM     10  C   UNK d   1       9.466  18.856   1.649  0.00  0.00     0.089 A 
ATOM     11  O   UNK d   1      10.660  19.316   1.167  0.00  0.00    -0.340 OA
ATOM     12  C   UNK d   1       8.338  19.647   1.873  0.00  0.00     0.076 A 
ATOM     13  C   UNK d   1      10.879  20.729   1.251  0.00  0.00     0.169 C 
ATOM     14  C   UNK d   1       9.669  21.544   0.829  0.00  0.00     0.121 C 
ATOM     15  C   UNK d   1       8.420  21.089   1.526  0.00  0.00     0.167 C 
ATOM     16  O   UNK d   1       7.504  21.879   1.732  0.00  0.00    -0.292 OA
ATOM     17  C   UNK d   1       7.201  19.055   2.436  0.00  0.00     0.085 A 
ATOM     18  C   UNK d   1       7.204  17.699   2.777  0.00  0.00     0.074 A 
BRANCH  13  19
ATOM     19  C   UNK d   1      11.530  21.139   2.570  0.00  0.00    -0.026 A 
ATOM     20  C   UNK d   1      12.007  20.212   3.510  0.00  0.00     0.049 A 
ATOM     21  C   UNK d   1      12.606  20.644   4.698  0.00  0.00     0.099 A 
ATOM     22  C   UNK d   1      12.741  22.005   4.993  0.00  0.00     0.101 A 
ATOM     23  C   UNK d   1      12.265  22.933   4.068  0.00  0.00     0.040 A 
ATOM     24  C   UNK d   1      11.668  22.504   2.873  0.00  0.00     0.012 A 
BRANCH  21  25
ATOM     25  O   UNK d   1      13.073  19.718   5.595  0.00  0.00    -0.358 OA
ATOM     26  H   UNK d   1      12.873  18.829   5.269  0.00  0.00     0.217 HD
ENDBRANCH  21  25
BRANCH  22  27
ATOM     27  O   UNK d   1      13.345  22.312   6.183  0.00  0.00    -0.353 OA
ATOM     28  C   UNK d   1      13.237  23.649   6.648  0.00  0.00     0.210 C 
ENDBRANCH  22  27
ENDBRANCH  13  19
BRANCH  17  29
ATOM     29  O   UNK d   1       6.074  19.786   2.679  0.00  0.00    -0.360 OA
ATOM     30  H   UNK d   1       5.390  19.231   3.087  0.00  0.00     0.217 HD
ENDBRANCH  17  29
ENDBRANCH   7   8
ENDBRANCH   6   7
BRANCH   5  31
ATOM     31  O   UNK d   1       8.621  14.087   0.516  0.00  0.00    -0.388 OA
ATOM     32  H   UNK d   1       8.913  13.274   0.060  0.00  0.00     0.210 HD
ENDBRANCH   5  31
BRANCH   2  33
ATOM     33  C   UNK d   1       4.359  13.119   4.136  0.00  0.00     0.205 C 
BRANCH  33  34
ATOM     34  O   UNK d   1       3.036  12.736   3.742  0.00  0.00    -0.356 OA
BRANCH  34  35
ATOM     35  C   UNK d   1       2.309  13.770   3.068  0.00  0.00     0.291 C 
ATOM     36  O   UNK d   1       1.665  14.603   4.043  0.00  0.00    -0.351 OA
ATOM     37  C   UNK d   1       0.479  15.277   3.617  0.00  0.00     0.152 C 
ATOM     38  C   UNK d   1       0.487  15.552   2.109  0.00  0.00     0.178 C 
ATOM     39  C   UNK d   1       0.373  16.554   4.445  0.00  0.00     0.042 C 
ATOM     40  C   UNK d   1       0.502  14.214   1.355  0.00  0.00     0.183 C 
ATOM     41  C   UNK d   1       1.300  13.125   2.093  0.00  0.00     0.204 C 
BRANCH  38  42
ATOM     42  O   UNK d   1      -0.642  16.304   1.663  0.00  0.00    -0.390 OA
ATOM     43  H   UNK d   1      -0.539  17.217   1.987  0.00  0.00     0.210 HD
ENDBRANCH  38  42
BRANCH  40  44
ATOM     44  O   UNK d   1       1.064  14.430   0.042  0.00  0.00    -0.390 OA
ATOM     45  H   UNK d   1       0.497  15.112  -0.373  0.00  0.00     0.210 HD
ENDBRANCH  40  44
BRANCH  41  46
ATOM     46  O   UNK d   1       1.921  12.255   1.135  0.00  0.00    -0.388 OA
ATOM     47  H   UNK d   1       2.043  12.801   0.330  0.00  0.00     0.210 HD
ENDBRANCH  41  46
ENDBRANCH  34  35
ENDBRANCH  33  34
ENDBRANCH   2  33
BRANCH   4  48
ATOM     48  O   UNK d   1       7.329  11.563   0.485  0.00  0.00    -0.390 OA
ATOM     49  H   UNK d   1       6.653  11.179  -0.103  0.00  0.00     0.210 HD
ENDBRANCH   4  48
BRANCH   3  50
ATOM     50  O   UNK d   1       4.699  11.534   1.633  0.00  0.00    -0.390 OA
ATOM     51  H   UNK d   1       5.032  10.626   1.508  0.00  0.00     0.210 HD
ENDBRANCH   3  50
TORSDOF 15
ENDMDL
MODEL 3
REMARK minimizedAffinity -8.56644726REMARK CNNscore 0.268554717REMARK CNNaffinity 4.99119473REMARK  15 active torsions:
REMARK  status: ('A' for Active; 'I' for Inactive)
REMARK    1  A    between atoms: O_2  and  C_21 
REMARK    2  A    between atoms: O_2  and  C_25 
REMARK    3  A    between atoms: O_4  and  C_17 
REMARK    4  A    between atoms: O_5  and  C_24 
REMARK    5  A    between atoms: O_5  and  C_28 
REMARK    6  A    between atoms: O_6  and  C_18 
REMARK    7  A    between atoms: O_7  and  C_19 
REMARK    8  A    between atoms: O_8  and  C_20 
REMARK    9  A    between atoms: O_9  and  C_22 
REMARK   10  A    between atoms: O_10  and  C_23 
REMARK   11  A    between atoms: O_12  and  C_35 
REMARK   12  A    between atoms: O_14  and  C_42 
REMARK   13  A    between atoms: O_15  and  C_40 
REMARK   14  A    between atoms: C_16  and  C_25 
REMARK   15  A    between atoms: C_33  and  C_37 
ROOT
ATOM      1  O   UNK d   1      10.384  18.927   3.778  0.00  0.00    -0.348 OA
ATOM      2  C   UNK d   1      10.034  18.725   5.151  0.00  0.00     0.180 C 
ATOM      3  C   UNK d   1       9.778  20.089   5.813  0.00  0.00     0.180 C 
ATOM      4  C   UNK d   1      11.000  20.993   5.634  0.00  0.00     0.183 C 
ATOM      5  C   UNK d   1      11.408  21.091   4.161  0.00  0.00     0.205 C 
ATOM      6  C   UNK d   1      11.592  19.669   3.597  0.00  0.00     0.298 C 
ENDROOT
BRANCH   6   7
ATOM      7  O   UNK d   1      11.872  19.765   2.193  0.00  0.00    -0.318 OA
BRANCH   7   8
ATOM      8  C   UNK d   1      10.873  20.226   1.379  0.00  0.00     0.077 A 
ATOM      9  C   UNK d   1      10.712  21.535   0.930  0.00  0.00     0.074 A 
ATOM     10  C   UNK d   1       9.589  21.891   0.173  0.00  0.00     0.089 A 
ATOM     11  O   UNK d   1       9.499  23.225  -0.112  0.00  0.00    -0.340 OA
ATOM     12  C   UNK d   1       8.651  20.929  -0.206  0.00  0.00     0.076 A 
ATOM     13  C   UNK d   1       8.206  23.710  -0.489  0.00  0.00     0.169 C 
ATOM     14  C   UNK d   1       7.494  22.802  -1.477  0.00  0.00     0.121 C 
ATOM     15  C   UNK d   1       7.488  21.374  -1.015  0.00  0.00     0.167 C 
ATOM     16  O   UNK d   1       6.583  20.619  -1.355  0.00  0.00    -0.292 OA
ATOM     17  C   UNK d   1       8.836  19.607   0.214  0.00  0.00     0.085 A 
ATOM     18  C   UNK d   1       9.934  19.263   1.008  0.00  0.00     0.074 A 
BRANCH  13  19
ATOM     19  C   UNK d   1       7.380  24.159   0.715  0.00  0.00    -0.026 A 
ATOM     20  C   UNK d   1       5.996  24.378   0.656  0.00  0.00     0.049 A 
ATOM     21  C   UNK d   1       5.287  24.778   1.795  0.00  0.00     0.099 A 
ATOM     22  C   UNK d   1       5.931  24.980   3.020  0.00  0.00     0.101 A 
ATOM     23  C   UNK d   1       7.307  24.770   3.087  0.00  0.00     0.040 A 
ATOM     24  C   UNK d   1       8.021  24.365   1.949  0.00  0.00     0.012 A 
BRANCH  21  25
ATOM     25  O   UNK d   1       3.932  24.975   1.713  0.00  0.00    -0.358 OA
ATOM     26  H   UNK d   1       3.644  24.834   0.799  0.00  0.00     0.217 HD
ENDBRANCH  21  25
BRANCH  22  27
ATOM     27  O   UNK d   1       5.137  25.368   4.066  0.00  0.00    -0.353 OA
ATOM     28  C   UNK d   1       5.704  26.245   5.029  0.00  0.00     0.210 C 
ENDBRANCH  22  27
ENDBRANCH  13  19
BRANCH  17  29
ATOM     29  O   UNK d   1       7.945  18.630  -0.127  0.00  0.00    -0.360 OA
ATOM     30  H   UNK d   1       8.209  17.779   0.259  0.00  0.00     0.217 HD
ENDBRANCH  17  29
ENDBRANCH   7   8
ENDBRANCH   6   7
BRANCH   5  31
ATOM     31  O   UNK d   1      12.620  21.857   4.078  0.00  0.00    -0.388 OA
ATOM     32  H   UNK d   1      12.425  22.699   4.534  0.00  0.00     0.210 HD
ENDBRANCH   5  31
BRANCH   2  33
ATOM     33  C   UNK d   1       8.770  17.847   5.221  0.00  0.00     0.205 C 
BRANCH  33  34
ATOM     34  O   UNK d   1       8.965  16.668   6.012  0.00  0.00    -0.356 OA
BRANCH  34  35
ATOM     35  C   UNK d   1       9.228  15.490   5.240  0.00  0.00     0.291 C 
ATOM     36  O   UNK d   1       8.546  15.590   3.981  0.00  0.00    -0.351 OA
ATOM     37  C   UNK d   1       8.194  14.357   3.350  0.00  0.00     0.152 C 
ATOM     38  C   UNK d   1       9.155  13.225   3.729  0.00  0.00     0.178 C 
ATOM     39  C   UNK d   1       8.162  14.621   1.848  0.00  0.00     0.042 C 
ATOM     40  C   UNK d   1       9.055  12.966   5.241  0.00  0.00     0.183 C 
ATOM     41  C   UNK d   1       8.786  14.248   6.046  0.00  0.00     0.204 C 
BRANCH  38  42
ATOM     42  O   UNK d   1       8.887  11.999   3.047  0.00  0.00    -0.390 OA
ATOM     43  H   UNK d   1       9.144  12.114   2.115  0.00  0.00     0.210 HD
ENDBRANCH  38  42
BRANCH  40  44
ATOM     44  O   UNK d   1      10.286  12.355   5.687  0.00  0.00    -0.390 OA
ATOM     45  H   UNK d   1      10.379  11.541   5.151  0.00  0.00     0.210 HD
ENDBRANCH  40  44
BRANCH  41  46
ATOM     46  O   UNK d   1       9.426  14.153   7.327  0.00  0.00    -0.388 OA
ATOM     47  H   UNK d   1      10.184  13.545   7.193  0.00  0.00     0.210 HD
ENDBRANCH  41  46
ENDBRANCH  34  35
ENDBRANCH  33  34
ENDBRANCH   2  33
BRANCH   4  48
ATOM     48  O   UNK d   1      10.719  22.313   6.132  0.00  0.00    -0.390 OA
ATOM     49  H   UNK d   1      10.775  22.255   7.103  0.00  0.00     0.210 HD
ENDBRANCH   4  48
BRANCH   3  50
ATOM     50  O   UNK d   1       9.506  19.945   7.209  0.00  0.00    -0.390 OA
ATOM     51  H   UNK d   1       9.018  20.741   7.488  0.00  0.00     0.210 HD
ENDBRANCH   3  50
TORSDOF 15
ENDMDL
MODEL 4
REMARK minimizedAffinity -9.23439217REMARK CNNscore 0.26720947REMARK CNNaffinity 4.74230051REMARK  15 active torsions:
REMARK  status: ('A' for Active; 'I' for Inactive)
REMARK    1  A    between atoms: O_2  and  C_21 
REMARK    2  A    between atoms: O_2  and  C_25 
REMARK    3  A    between atoms: O_4  and  C_17 
REMARK    4  A    between atoms: O_5  and  C_24 
REMARK    5  A    between atoms: O_5  and  C_28 
REMARK    6  A    between atoms: O_6  and  C_18 
REMARK    7  A    between atoms: O_7  and  C_19 
REMARK    8  A    between atoms: O_8  and  C_20 
REMARK    9  A    between atoms: O_9  and  C_22 
REMARK   10  A    between atoms: O_10  and  C_23 
REMARK   11  A    between atoms: O_12  and  C_35 
REMARK   12  A    between atoms: O_14  and  C_42 
REMARK   13  A    between atoms: O_15  and  C_40 
REMARK   14  A    between atoms: C_16  and  C_25 
REMARK   15  A    between atoms: C_33  and  C_37 
ROOT
ATOM      1  O   UNK d   1       6.529  13.947   3.658  0.00  0.00    -0.348 OA
ATOM      2  C   UNK d   1       5.432  13.137   3.224  0.00  0.00     0.180 C 
ATOM      3  C   UNK d   1       5.964  11.996   2.342  0.00  0.00     0.180 C 
ATOM      4  C   UNK d   1       6.779  12.572   1.181  0.00  0.00     0.183 C 
ATOM      5  C   UNK d   1       7.870  13.522   1.684  0.00  0.00     0.205 C 
ATOM      6  C   UNK d   1       7.227  14.589   2.589  0.00  0.00     0.298 C 
ENDROOT
BRANCH   6   7
ATOM      7  O   UNK d   1       8.265  15.411   3.140  0.00  0.00    -0.318 OA
BRANCH   7   8
ATOM      8  C   UNK d   1       8.347  16.705   2.703  0.00  0.00     0.077 A 
ATOM      9  C   UNK d   1       9.436  17.293   2.065  0.00  0.00     0.074 A 
ATOM     10  C   UNK d   1       9.421  18.658   1.751  0.00  0.00     0.089 A 
ATOM     11  O   UNK d   1      10.591  19.130   1.224  0.00  0.00    -0.340 OA
ATOM     12  C   UNK d   1       8.289  19.434   2.003  0.00  0.00     0.076 A 
ATOM     13  C   UNK d   1      10.791  20.547   1.286  0.00  0.00     0.169 C 
ATOM     14  C   UNK d   1       9.555  21.340   0.896  0.00  0.00     0.121 C 
ATOM     15  C   UNK d   1       8.337  20.873   1.639  0.00  0.00     0.167 C 
ATOM     16  O   UNK d   1       7.417  21.652   1.867  0.00  0.00    -0.292 OA
ATOM     17  C   UNK d   1       7.180  18.831   2.609  0.00  0.00     0.085 A 
ATOM     18  C   UNK d   1       7.215  17.479   2.964  0.00  0.00     0.074 A 
BRANCH  13  19
ATOM     19  C   UNK d   1      11.479  20.981   2.579  0.00  0.00    -0.026 A 
ATOM     20  C   UNK d   1      11.989  20.072   3.518  0.00  0.00     0.049 A 
ATOM     21  C   UNK d   1      12.620  20.526   4.681  0.00  0.00     0.099 A 
ATOM     22  C   UNK d   1      12.757  21.892   4.950  0.00  0.00     0.101 A 
ATOM     23  C   UNK d   1      12.248  22.802   4.025  0.00  0.00     0.040 A 
ATOM     24  C   UNK d   1      11.618  22.352   2.856  0.00  0.00     0.012 A 
BRANCH  21  25
ATOM     25  O   UNK d   1      13.119  19.616   5.578  0.00  0.00    -0.358 OA
ATOM     26  H   UNK d   1      12.914  18.721   5.272  0.00  0.00     0.217 HD
ENDBRANCH  21  25
BRANCH  22  27
ATOM     27  O   UNK d   1      13.394  22.220   6.117  0.00  0.00    -0.353 OA
ATOM     28  C   UNK d   1      12.593  22.685   7.193  0.00  0.00     0.210 C 
ENDBRANCH  22  27
ENDBRANCH  13  19
BRANCH  17  29
ATOM     29  O   UNK d   1       6.051  19.549   2.882  0.00  0.00    -0.360 OA
ATOM     30  H   UNK d   1       5.389  18.988   3.318  0.00  0.00     0.217 HD
ENDBRANCH  17  29
ENDBRANCH   7   8
ENDBRANCH   6   7
BRANCH   5  31
ATOM     31  O   UNK d   1       8.518  14.110   0.546  0.00  0.00    -0.388 OA
ATOM     32  H   UNK d   1       8.813  13.356  -0.001  0.00  0.00     0.210 HD
ENDBRANCH   5  31
BRANCH   2  33
ATOM     33  C   UNK d   1       4.709  12.568   4.461  0.00  0.00     0.205 C 
BRANCH  33  34
ATOM     34  O   UNK d   1       5.511  11.622   5.178  0.00  0.00    -0.356 OA
BRANCH  34  35
ATOM     35  C   UNK d   1       4.942  10.309   5.240  0.00  0.00     0.291 C 
ATOM     36  O   UNK d   1       4.312  10.129   6.517  0.00  0.00    -0.351 OA
ATOM     37  C   UNK d   1       4.220   8.785   6.996  0.00  0.00     0.152 C 
ATOM     38  C   UNK d   1       4.161   7.772   5.848  0.00  0.00     0.178 C 
ATOM     39  C   UNK d   1       2.993   8.720   7.899  0.00  0.00     0.042 C 
ATOM     40  C   UNK d   1       5.471   7.842   5.047  0.00  0.00     0.183 C 
ATOM     41  C   UNK d   1       6.052   9.265   4.985  0.00  0.00     0.204 C 
BRANCH  38  42
ATOM     42  O   UNK d   1       3.978   6.425   6.288  0.00  0.00    -0.390 OA
ATOM     43  H   UNK d   1       3.066   6.340   6.616  0.00  0.00     0.210 HD
ENDBRANCH  38  42
BRANCH  40  44
ATOM     44  O   UNK d   1       5.222   7.354   3.711  0.00  0.00    -0.390 OA
ATOM     45  H   UNK d   1       4.878   6.446   3.827  0.00  0.00     0.210 HD
ENDBRANCH  40  44
BRANCH  41  46
ATOM     46  O   UNK d   1       6.724   9.454   3.731  0.00  0.00    -0.388 OA
ATOM     47  H   UNK d   1       6.282   8.839   3.107  0.00  0.00     0.210 HD
ENDBRANCH  41  46
ENDBRANCH  34  35
ENDBRANCH  33  34
ENDBRANCH   2  33
BRANCH   4  48
ATOM     48  O   UNK d   1       7.391  11.510   0.429  0.00  0.00    -0.390 OA
ATOM     49  H   UNK d   1       6.685  11.125  -0.123  0.00  0.00     0.210 HD
ENDBRANCH   4  48
BRANCH   3  50
ATOM     50  O   UNK d   1       4.896  11.207   1.813  0.00  0.00    -0.390 OA
ATOM     51  H   UNK d   1       5.271  10.338   1.582  0.00  0.00     0.210 HD
ENDBRANCH   3  50
TORSDOF 15
ENDMDL
MODEL 5
REMARK minimizedAffinity -7.79993343REMARK CNNscore 0.247473642REMARK CNNaffinity 4.59519863REMARK  15 active torsions:
REMARK  status: ('A' for Active; 'I' for Inactive)
REMARK    1  A    between atoms: O_2  and  C_21 
REMARK    2  A    between atoms: O_2  and  C_25 
REMARK    3  A    between atoms: O_4  and  C_17 
REMARK    4  A    between atoms: O_5  and  C_24 
REMARK    5  A    between atoms: O_5  and  C_28 
REMARK    6  A    between atoms: O_6  and  C_18 
REMARK    7  A    between atoms: O_7  and  C_19 
REMARK    8  A    between atoms: O_8  and  C_20 
REMARK    9  A    between atoms: O_9  and  C_22 
REMARK   10  A    between atoms: O_10  and  C_23 
REMARK   11  A    between atoms: O_12  and  C_35 
REMARK   12  A    between atoms: O_14  and  C_42 
REMARK   13  A    between atoms: O_15  and  C_40 
REMARK   14  A    between atoms: C_16  and  C_25 
REMARK   15  A    between atoms: C_33  and  C_37 
ROOT
ATOM      1  O   UNK d   1      11.557  21.037   4.311  0.00  0.00    -0.348 OA
ATOM      2  C   UNK d   1      11.202  21.075   5.697  0.00  0.00     0.180 C 
ATOM      3  C   UNK d   1      12.428  20.691   6.544  0.00  0.00     0.180 C 
ATOM      4  C   UNK d   1      12.961  19.327   6.099  0.00  0.00     0.183 C 
ATOM      5  C   UNK d   1      13.221  19.296   4.590  0.00  0.00     0.205 C 
ATOM      6  C   UNK d   1      11.943  19.740   3.853  0.00  0.00     0.298 C 
ENDROOT
BRANCH   6   7
ATOM      7  O   UNK d   1      12.224  19.809   2.448  0.00  0.00    -0.318 OA
BRANCH   7   8
ATOM      8  C   UNK d   1      11.213  20.215   1.620  0.00  0.00     0.077 A 
ATOM      9  C   UNK d   1      11.066  21.480   1.057  0.00  0.00     0.074 A 
ATOM     10  C   UNK d   1       9.930  21.790   0.298  0.00  0.00     0.089 A 
ATOM     11  O   UNK d   1       9.859  23.094  -0.107  0.00  0.00    -0.340 OA
ATOM     12  C   UNK d   1       8.964  20.818   0.032  0.00  0.00     0.076 A 
ATOM     13  C   UNK d   1       8.565  23.571  -0.495  0.00  0.00     0.169 C 
ATOM     14  C   UNK d   1       7.810  22.591  -1.376  0.00  0.00     0.121 C 
ATOM     15  C   UNK d   1       7.788  21.212  -0.785  0.00  0.00     0.167 C 
ATOM     16  O   UNK d   1       6.860  20.449  -1.030  0.00  0.00    -0.292 OA
ATOM     17  C   UNK d   1       9.134  19.536   0.568  0.00  0.00     0.085 A 
ATOM     18  C   UNK d   1      10.246  19.242   1.363  0.00  0.00     0.074 A 
BRANCH  13  19
ATOM     19  C   UNK d   1       7.781  24.146   0.683  0.00  0.00    -0.026 A 
ATOM     20  C   UNK d   1       8.393  24.631   1.848  0.00  0.00     0.049 A 
ATOM     21  C   UNK d   1       7.626  25.158   2.893  0.00  0.00     0.099 A 
ATOM     22  C   UNK d   1       6.230  25.212   2.815  0.00  0.00     0.101 A 
ATOM     23  C   UNK d   1       5.612  24.727   1.663  0.00  0.00     0.040 A 
ATOM     24  C   UNK d   1       6.378  24.202   0.613  0.00  0.00     0.012 A 
BRANCH  21  25
ATOM     25  O   UNK d   1       8.250  25.635   4.016  0.00  0.00    -0.358 OA
ATOM     26  H   UNK d   1       9.205  25.494   3.935  0.00  0.00     0.217 HD
ENDBRANCH  21  25
BRANCH  22  27
ATOM     27  O   UNK d   1       5.582  25.751   3.895  0.00  0.00    -0.353 OA
ATOM     28  C   UNK d   1       4.173  25.902   3.805  0.00  0.00     0.210 C 
ENDBRANCH  22  27
ENDBRANCH  13  19
BRANCH  17  29
ATOM     29  O   UNK d   1       8.215  18.551   0.341  0.00  0.00    -0.360 OA
ATOM     30  H   UNK d   1       8.473  17.734   0.797  0.00  0.00     0.217 HD
ENDBRANCH  17  29
ENDBRANCH   7   8
ENDBRANCH   6   7
BRANCH   5  31
ATOM     31  O   UNK d   1      13.609  17.963   4.226  0.00  0.00    -0.388 OA
ATOM     32  H   UNK d   1      14.367  17.747   4.804  0.00  0.00     0.210 HD
ENDBRANCH   5  31
BRANCH   2  33
ATOM     33  C   UNK d   1      10.725  22.496   6.054  0.00  0.00     0.205 C 
BRANCH  33  34
ATOM     34  O   UNK d   1      10.760  23.384   4.930  0.00  0.00    -0.356 OA
BRANCH  34  35
ATOM     35  C   UNK d   1      11.674  24.477   5.082  0.00  0.00     0.291 C 
ATOM     36  O   UNK d   1      10.966  25.711   4.887  0.00  0.00    -0.351 OA
ATOM     37  C   UNK d   1      11.741  26.819   4.422  0.00  0.00     0.152 C 
ATOM     38  C   UNK d   1      13.206  26.717   4.859  0.00  0.00     0.178 C 
ATOM     39  C   UNK d   1      11.061  28.083   4.938  0.00  0.00     0.042 C 
ATOM     40  C   UNK d   1      13.836  25.469   4.221  0.00  0.00     0.183 C 
ATOM     41  C   UNK d   1      12.837  24.307   4.081  0.00  0.00     0.204 C 
BRANCH  38  42
ATOM     42  O   UNK d   1      13.990  27.852   4.488  0.00  0.00    -0.390 OA
ATOM     43  H   UNK d   1      13.714  28.600   5.046  0.00  0.00     0.210 HD
ENDBRANCH  38  42
BRANCH  40  44
ATOM     44  O   UNK d   1      14.961  25.056   5.027  0.00  0.00    -0.390 OA
ATOM     45  H   UNK d   1      15.558  25.831   5.053  0.00  0.00     0.210 HD
ENDBRANCH  40  44
BRANCH  41  46
ATOM     46  O   UNK d   1      13.531  23.059   4.233  0.00  0.00    -0.388 OA
ATOM     47  H   UNK d   1      14.309  23.263   4.793  0.00  0.00     0.210 HD
ENDBRANCH  41  46
ENDBRANCH  34  35
ENDBRANCH  33  34
ENDBRANCH   2  33
BRANCH   4  48
ATOM     48  O   UNK d   1      14.184  19.023   6.793  0.00  0.00    -0.390 OA
ATOM     49  H   UNK d   1      13.926  18.744   7.691  0.00  0.00     0.210 HD
ENDBRANCH   4  48
BRANCH   3  50
ATOM     50  O   UNK d   1      12.100  20.633   7.933  0.00  0.00    -0.390 OA
ATOM     51  H   UNK d   1      12.933  20.744   8.427  0.00  0.00     0.210 HD
ENDBRANCH   3  50
TORSDOF 15
ENDMDL
MODEL 6
REMARK minimizedAffinity -7.32318354REMARK CNNscore 0.240729421REMARK CNNaffinity 4.75865412REMARK  15 active torsions:
REMARK  status: ('A' for Active; 'I' for Inactive)
REMARK    1  A    between atoms: O_2  and  C_21 
REMARK    2  A    between atoms: O_2  and  C_25 
REMARK    3  A    between atoms: O_4  and  C_17 
REMARK    4  A    between atoms: O_5  and  C_24 
REMARK    5  A    between atoms: O_5  and  C_28 
REMARK    6  A    between atoms: O_6  and  C_18 
REMARK    7  A    between atoms: O_7  and  C_19 
REMARK    8  A    between atoms: O_8  and  C_20 
REMARK    9  A    between atoms: O_9  and  C_22 
REMARK   10  A    between atoms: O_10  and  C_23 
REMARK   11  A    between atoms: O_12  and  C_35 
REMARK   12  A    between atoms: O_14  and  C_42 
REMARK   13  A    between atoms: O_15  and  C_40 
REMARK   14  A    between atoms: C_16  and  C_25 
REMARK   15  A    between atoms: C_33  and  C_37 
ROOT
ATOM      1  O   UNK d   1      -0.822   4.376   0.949  0.00  0.00    -0.348 OA
ATOM      2  C   UNK d   1       0.101   5.381   0.516  0.00  0.00     0.180 C 
ATOM      3  C   UNK d   1      -0.675   6.524  -0.160  0.00  0.00     0.180 C 
ATOM      4  C   UNK d   1      -1.532   5.968  -1.300  0.00  0.00     0.183 C 
ATOM      5  C   UNK d   1      -2.423   4.820  -0.817  0.00  0.00     0.205 C 
ATOM      6  C   UNK d   1      -1.545   3.763  -0.120  0.00  0.00     0.298 C 
ENDROOT
BRANCH   6   7
ATOM      7  O   UNK d   1      -2.396   2.743   0.420  0.00  0.00    -0.318 OA
BRANCH   7   8
ATOM      8  C   UNK d   1      -2.138   1.448   0.060  0.00  0.00     0.077 A 
ATOM      9  C   UNK d   1      -1.110   1.011  -0.771  0.00  0.00     0.074 A 
ATOM     10  C   UNK d   1      -1.015  -0.338  -1.133  0.00  0.00     0.089 A 
ATOM     11  O   UNK d   1      -0.026  -0.614  -2.036  0.00  0.00    -0.340 OA
ATOM     12  C   UNK d   1      -1.903  -1.279  -0.610  0.00  0.00     0.076 A 
ATOM     13  C   UNK d   1      -0.148  -1.845  -2.758  0.00  0.00     0.169 C 
ATOM     14  C   UNK d   1      -0.544  -3.015  -1.875  0.00  0.00     0.121 C 
ATOM     15  C   UNK d   1      -1.743  -2.695  -1.029  0.00  0.00     0.167 C 
ATOM     16  O   UNK d   1      -2.501  -3.589  -0.669  0.00  0.00    -0.292 OA
ATOM     17  C   UNK d   1      -2.913  -0.844   0.257  0.00  0.00     0.085 A 
ATOM     18  C   UNK d   1      -3.033   0.511   0.580  0.00  0.00     0.074 A 
BRANCH  13  19
ATOM     19  C   UNK d   1      -0.949  -1.685  -4.048  0.00  0.00    -0.026 A 
ATOM     20  C   UNK d   1      -1.252  -0.437  -4.613  0.00  0.00     0.049 A 
ATOM     21  C   UNK d   1      -1.980  -0.349  -5.804  0.00  0.00     0.099 A 
ATOM     22  C   UNK d   1      -2.435  -1.495  -6.466  0.00  0.00     0.101 A 
ATOM     23  C   UNK d   1      -2.143  -2.740  -5.909  0.00  0.00     0.040 A 
ATOM     24  C   UNK d   1      -1.410  -2.832  -4.717  0.00  0.00     0.012 A 
BRANCH  21  25
ATOM     25  O   UNK d   1      -2.255   0.883  -6.340  0.00  0.00    -0.358 OA
ATOM     26  H   UNK d   1      -1.910   1.571  -5.752  0.00  0.00     0.217 HD
ENDBRANCH  21  25
BRANCH  22  27
ATOM     27  O   UNK d   1      -3.135  -1.290  -7.624  0.00  0.00    -0.353 OA
ATOM     28  C   UNK d   1      -2.458  -1.525  -8.850  0.00  0.00     0.210 C 
ENDBRANCH  22  27
ENDBRANCH  13  19
BRANCH  17  29
ATOM     29  O   UNK d   1      -3.809  -1.724   0.791  0.00  0.00    -0.360 OA
ATOM     30  H   UNK d   1      -4.450  -1.259   1.352  0.00  0.00     0.217 HD
ENDBRANCH  17  29
ENDBRANCH   7   8
ENDBRANCH   6   7
BRANCH   5  31
ATOM     31  O   UNK d   1      -3.112   4.274  -1.953  0.00  0.00    -0.388 OA
ATOM     32  H   UNK d   1      -3.565   5.033  -2.369  0.00  0.00     0.210 HD
ENDBRANCH   5  31
BRANCH   2  33
ATOM     33  C   UNK d   1       0.878   5.908   1.739  0.00  0.00     0.205 C 
BRANCH  33  34
ATOM     34  O   UNK d   1       2.245   5.481   1.744  0.00  0.00    -0.356 OA
BRANCH  34  35
ATOM     35  C   UNK d   1       2.755   5.188   3.051  0.00  0.00     0.291 C 
ATOM     36  O   UNK d   1       1.655   4.970   3.947  0.00  0.00    -0.351 OA
ATOM     37  C   UNK d   1       1.897   5.246   5.328  0.00  0.00     0.152 C 
ATOM     38  C   UNK d   1       3.372   5.053   5.700  0.00  0.00     0.178 C 
ATOM     39  C   UNK d   1       0.967   4.341   6.130  0.00  0.00     0.042 C 
ATOM     40  C   UNK d   1       4.224   6.064   4.916  0.00  0.00     0.183 C 
ATOM     41  C   UNK d   1       3.662   6.350   3.512  0.00  0.00     0.204 C 
BRANCH  38  42
ATOM     42  O   UNK d   1       3.634   5.234   7.092  0.00  0.00    -0.390 OA
ATOM     43  H   UNK d   1       3.255   4.474   7.568  0.00  0.00     0.210 HD
ENDBRANCH  38  42
BRANCH  40  44
ATOM     44  O   UNK d   1       5.569   5.549   4.810  0.00  0.00    -0.390 OA
ATOM     45  H   UNK d   1       5.867   5.413   5.733  0.00  0.00     0.210 HD
ENDBRANCH  40  44
BRANCH  41  46
ATOM     46  O   UNK d   1       4.745   6.612   2.607  0.00  0.00    -0.388 OA
ATOM     47  H   UNK d   1       5.514   6.131   2.979  0.00  0.00     0.210 HD
ENDBRANCH  41  46
ENDBRANCH  34  35
ENDBRANCH  33  34
ENDBRANCH   2  33
BRANCH   4  48
ATOM     48  O   UNK d   1      -2.361   7.007  -1.849  0.00  0.00    -0.390 OA
ATOM     49  H   UNK d   1      -1.780   7.549  -2.414  0.00  0.00     0.210 HD
ENDBRANCH   4  48
BRANCH   3  50
ATOM     50  O   UNK d   1       0.212   7.514  -0.685  0.00  0.00    -0.390 OA
ATOM     51  H   UNK d   1      -0.299   8.339  -0.768  0.00  0.00     0.210 HD
ENDBRANCH   3  50
TORSDOF 15
ENDMDL
MODEL 7
REMARK minimizedAffinity -6.9758482REMARK CNNscore 0.22498405REMARK CNNaffinity 4.52582836REMARK  15 active torsions:
REMARK  status: ('A' for Active; 'I' for Inactive)
REMARK    1  A    between atoms: O_2  and  C_21 
REMARK    2  A    between atoms: O_2  and  C_25 
REMARK    3  A    between atoms: O_4  and  C_17 
REMARK    4  A    between atoms: O_5  and  C_24 
REMARK    5  A    between atoms: O_5  and  C_28 
REMARK    6  A    between atoms: O_6  and  C_18 
REMARK    7  A    between atoms: O_7  and  C_19 
REMARK    8  A    between atoms: O_8  and  C_20 
REMARK    9  A    between atoms: O_9  and  C_22 
REMARK   10  A    between atoms: O_10  and  C_23 
REMARK   11  A    between atoms: O_12  and  C_35 
REMARK   12  A    between atoms: O_14  and  C_42 
REMARK   13  A    between atoms: O_15  and  C_40 
REMARK   14  A    between atoms: C_16  and  C_25 
REMARK   15  A    between atoms: C_33  and  C_37 
ROOT
ATOM      1  O   UNK d   1       6.874  15.307  10.177  0.00  0.00    -0.348 OA
ATOM      2  C   UNK d   1       7.693  15.744  11.267  0.00  0.00     0.180 C 
ATOM      3  C   UNK d   1       7.173  17.097  11.781  0.00  0.00     0.180 C 
ATOM      4  C   UNK d   1       7.119  18.105  10.630  0.00  0.00     0.183 C 
ATOM      5  C   UNK d   1       6.326  17.551   9.442  0.00  0.00     0.205 C 
ATOM      6  C   UNK d   1       6.907  16.181   9.047  0.00  0.00     0.298 C 
ENDROOT
BRANCH   6   7
ATOM      7  O   UNK d   1       6.097  15.622   8.004  0.00  0.00    -0.318 OA
BRANCH   7   8
ATOM      8  C   UNK d   1       6.723  15.263   6.841  0.00  0.00     0.077 A 
ATOM      9  C   UNK d   1       6.202  15.377   5.555  0.00  0.00     0.074 A 
ATOM     10  C   UNK d   1       6.916  14.884   4.455  0.00  0.00     0.089 A 
ATOM     11  O   UNK d   1       6.247  14.964   3.265  0.00  0.00    -0.340 OA
ATOM     12  C   UNK d   1       8.190  14.338   4.619  0.00  0.00     0.076 A 
ATOM     13  C   UNK d   1       6.717  14.113   2.213  0.00  0.00     0.169 C 
ATOM     14  C   UNK d   1       8.231  14.099   2.089  0.00  0.00     0.121 C 
ATOM     15  C   UNK d   1       8.895  13.841   3.411  0.00  0.00     0.167 C 
ATOM     16  O   UNK d   1       9.993  13.297   3.454  0.00  0.00    -0.292 OA
ATOM     17  C   UNK d   1       8.727  14.260   5.910  0.00  0.00     0.085 A 
ATOM     18  C   UNK d   1       7.993  14.710   7.011  0.00  0.00     0.074 A 
BRANCH  13  19
ATOM     19  C   UNK d   1       6.038  12.744   2.226  0.00  0.00    -0.026 A 
ATOM     20  C   UNK d   1       4.711  12.550   2.637  0.00  0.00     0.049 A 
ATOM     21  C   UNK d   1       4.136  11.275   2.618  0.00  0.00     0.099 A 
ATOM     22  C   UNK d   1       4.862  10.155   2.199  0.00  0.00     0.101 A 
ATOM     23  C   UNK d   1       6.184  10.337   1.794  0.00  0.00     0.040 A 
ATOM     24  C   UNK d   1       6.763  11.615   1.808  0.00  0.00     0.012 A 
BRANCH  21  25
ATOM     25  O   UNK d   1       2.834  11.115   3.015  0.00  0.00    -0.358 OA
ATOM     26  H   UNK d   1       2.483  11.968   3.310  0.00  0.00     0.217 HD
ENDBRANCH  21  25
BRANCH  22  27
ATOM     27  O   UNK d   1       4.198   8.958   2.219  0.00  0.00    -0.353 OA
ATOM     28  C   UNK d   1       4.728   7.928   3.040  0.00  0.00     0.210 C 
ENDBRANCH  22  27
ENDBRANCH  13  19
BRANCH  17  29
ATOM     29  O   UNK d   1       9.968  13.730   6.124  0.00  0.00    -0.360 OA
ATOM     30  H   UNK d   1      10.179  13.733   7.072  0.00  0.00     0.217 HD
ENDBRANCH  17  29
ENDBRANCH   7   8
ENDBRANCH   6   7
BRANCH   5  31
ATOM     31  O   UNK d   1       6.411  18.496   8.364  0.00  0.00    -0.388 OA
ATOM     32  H   UNK d   1       6.101  19.344   8.738  0.00  0.00     0.210 HD
ENDBRANCH   5  31
BRANCH   2  33
ATOM     33  C   UNK d   1       7.643  14.687  12.387  0.00  0.00     0.205 C 
BRANCH  33  34
ATOM     34  O   UNK d   1       8.729  14.816  13.312  0.00  0.00    -0.356 OA
BRANCH  34  35
ATOM     35  C   UNK d   1      10.019  14.864  12.689  0.00  0.00     0.291 C 
ATOM     36  O   UNK d   1      10.493  13.525  12.486  0.00  0.00    -0.351 OA
ATOM     37  C   UNK d   1      11.912  13.354  12.443  0.00  0.00     0.152 C 
ATOM     38  C   UNK d   1      12.625  14.614  11.940  0.00  0.00     0.178 C 
ATOM     39  C   UNK d   1      12.185  12.136  11.567  0.00  0.00     0.042 C 
ATOM     40  C   UNK d   1      12.371  15.763  12.928  0.00  0.00     0.183 C 
ATOM     41  C   UNK d   1      10.976  15.695  13.572  0.00  0.00     0.204 C 
BRANCH  38  42
ATOM     42  O   UNK d   1      14.037  14.449  11.800  0.00  0.00    -0.390 OA
ATOM     43  H   UNK d   1      14.194  13.867  11.035  0.00  0.00     0.210 HD
ENDBRANCH  38  42
BRANCH  40  44
ATOM     44  O   UNK d   1      12.529  17.017  12.227  0.00  0.00    -0.390 OA
ATOM     45  H   UNK d   1      13.438  16.999  11.867  0.00  0.00     0.210 HD
ENDBRANCH  40  44
BRANCH  41  46
ATOM     46  O   UNK d   1      10.498  17.025  13.821  0.00  0.00    -0.388 OA
ATOM     47  H   UNK d   1      10.946  17.590  13.156  0.00  0.00     0.210 HD
ENDBRANCH  41  46
ENDBRANCH  34  35
ENDBRANCH  33  34
ENDBRANCH   2  33
BRANCH   4  48
ATOM     48  O   UNK d   1       6.508  19.330  11.072  0.00  0.00    -0.390 OA
ATOM     49  H   UNK d   1       7.187  19.801  11.590  0.00  0.00     0.210 HD
ENDBRANCH   4  48
BRANCH   3  50
ATOM     50  O   UNK d   1       8.012  17.616  12.815  0.00  0.00    -0.390 OA
ATOM     51  H   UNK d   1       7.474  18.245  13.329  0.00  0.00     0.210 HD
ENDBRANCH   3  50
TORSDOF 15
ENDMDL
MODEL 8
REMARK minimizedAffinity -8.52600384REMARK CNNscore 0.219579086REMARK CNNaffinity 4.5154562REMARK  15 active torsions:
REMARK  status: ('A' for Active; 'I' for Inactive)
REMARK    1  A    between atoms: O_2  and  C_21 
REMARK    2  A    between atoms: O_2  and  C_25 
REMARK    3  A    between atoms: O_4  and  C_17 
REMARK    4  A    between atoms: O_5  and  C_24 
REMARK    5  A    between atoms: O_5  and  C_28 
REMARK    6  A    between atoms: O_6  and  C_18 
REMARK    7  A    between atoms: O_7  and  C_19 
REMARK    8  A    between atoms: O_8  and  C_20 
REMARK    9  A    between atoms: O_9  and  C_22 
REMARK   10  A    between atoms: O_10  and  C_23 
REMARK   11  A    between atoms: O_12  and  C_35 
REMARK   12  A    between atoms: O_14  and  C_42 
REMARK   13  A    between atoms: O_15  and  C_40 
REMARK   14  A    between atoms: C_16  and  C_25 
REMARK   15  A    between atoms: C_33  and  C_37 
ROOT
ATOM      1  O   UNK d   1      25.456  -6.784  21.682  0.00  0.00    -0.348 OA
ATOM      2  C   UNK d   1      26.164  -6.349  20.517  0.00  0.00     0.180 C 
ATOM      3  C   UNK d   1      26.015  -7.406  19.410  0.00  0.00     0.180 C 
ATOM      4  C   UNK d   1      26.489  -8.768  19.924  0.00  0.00     0.183 C 
ATOM      5  C   UNK d   1      25.787  -9.143  21.232  0.00  0.00     0.205 C 
ATOM      6  C   UNK d   1      25.965  -7.996  22.244  0.00  0.00     0.298 C 
ENDROOT
BRANCH   6   7
ATOM      7  O   UNK d   1      25.219  -8.307  23.428  0.00  0.00    -0.318 OA
BRANCH   7   8
ATOM      8  C   UNK d   1      25.299  -7.429  24.475  0.00  0.00     0.077 A 
ATOM      9  C   UNK d   1      24.228  -6.829  25.133  0.00  0.00     0.074 A 
ATOM     10  C   UNK d   1      24.455  -5.875  26.132  0.00  0.00     0.089 A 
ATOM     11  O   UNK d   1      23.321  -5.287  26.621  0.00  0.00    -0.340 OA
ATOM     12  C   UNK d   1      25.754  -5.563  26.538  0.00  0.00     0.076 A 
ATOM     13  C   UNK d   1      23.494  -4.040  27.303  0.00  0.00     0.169 C 
ATOM     14  C   UNK d   1      24.670  -4.045  28.264  0.00  0.00     0.121 C 
ATOM     15  C   UNK d   1      25.923  -4.548  27.608  0.00  0.00     0.167 C 
ATOM     16  O   UNK d   1      27.021  -4.166  27.999  0.00  0.00    -0.292 OA
ATOM     17  C   UNK d   1      26.828  -6.197  25.902  0.00  0.00     0.085 A 
ATOM     18  C   UNK d   1      26.600  -7.115  24.872  0.00  0.00     0.074 A 
BRANCH  13  19
ATOM     19  C   UNK d   1      23.415  -2.844  26.355  0.00  0.00    -0.026 A 
ATOM     20  C   UNK d   1      22.683  -2.862  25.159  0.00  0.00     0.049 A 
ATOM     21  C   UNK d   1      22.636  -1.733  24.334  0.00  0.00     0.099 A 
ATOM     22  C   UNK d   1      23.319  -0.558  24.667  0.00  0.00     0.101 A 
ATOM     23  C   UNK d   1      24.053  -0.533  25.851  0.00  0.00     0.040 A 
ATOM     24  C   UNK d   1      24.100  -1.661  26.683  0.00  0.00     0.012 A 
BRANCH  21  25
ATOM     25  O   UNK d   1      21.905  -1.773  23.174  0.00  0.00    -0.358 OA
ATOM     26  H   UNK d   1      21.526  -2.658  23.066  0.00  0.00     0.217 HD
ENDBRANCH  21  25
BRANCH  22  27
ATOM     27  O   UNK d   1      23.199   0.484  23.787  0.00  0.00    -0.353 OA
ATOM     28  C   UNK d   1      23.640   1.762  24.221  0.00  0.00     0.210 C 
ENDBRANCH  22  27
ENDBRANCH  13  19
BRANCH  17  29
ATOM     29  O   UNK d   1      28.118  -5.923  26.258  0.00  0.00    -0.360 OA
ATOM     30  H   UNK d   1      28.737  -6.430  25.710  0.00  0.00     0.217 HD
ENDBRANCH  17  29
ENDBRANCH   7   8
ENDBRANCH   6   7
BRANCH   5  31
ATOM     31  O   UNK d   1      26.356 -10.371  21.714  0.00  0.00    -0.388 OA
ATOM     32  H   UNK d   1      26.269 -11.004  20.975  0.00  0.00     0.210 HD
ENDBRANCH   5  31
BRANCH   2  33
ATOM     33  C   UNK d   1      25.583  -4.999  20.053  0.00  0.00     0.205 C 
BRANCH  33  34
ATOM     34  O   UNK d   1      26.505  -4.253  19.249  0.00  0.00    -0.356 OA
BRANCH  34  35
ATOM     35  C   UNK d   1      25.877  -3.313  18.368  0.00  0.00     0.291 C 
ATOM     36  O   UNK d   1      24.842  -2.620  19.082  0.00  0.00    -0.351 OA
ATOM     37  C   UNK d   1      23.760  -2.113  18.297  0.00  0.00     0.152 C 
ATOM     38  C   UNK d   1      24.197  -1.787  16.864  0.00  0.00     0.178 C 
ATOM     39  C   UNK d   1      23.210  -0.896  19.034  0.00  0.00     0.042 C 
ATOM     40  C   UNK d   1      24.648  -3.081  16.169  0.00  0.00     0.183 C 
ATOM     41  C   UNK d   1      25.331  -4.065  17.134  0.00  0.00     0.204 C 
BRANCH  38  42
ATOM     42  O   UNK d   1      23.163  -1.194  16.076  0.00  0.00    -0.390 OA
ATOM     43  H   UNK d   1      23.021  -0.288  16.404  0.00  0.00     0.210 HD
ENDBRANCH  38  42
BRANCH  40  44
ATOM     44  O   UNK d   1      25.552  -2.737  15.096  0.00  0.00    -0.390 OA
ATOM     45  H   UNK d   1      25.047  -2.133  14.516  0.00  0.00     0.210 HD
ENDBRANCH  40  44
BRANCH  41  46
ATOM     46  O   UNK d   1      26.344  -4.800  16.431  0.00  0.00    -0.388 OA
ATOM     47  H   UNK d   1      26.626  -4.214  15.698  0.00  0.00     0.210 HD
ENDBRANCH  41  46
ENDBRANCH  34  35
ENDBRANCH  33  34
ENDBRANCH   2  33
BRANCH   4  48
ATOM     48  O   UNK d   1      26.228  -9.786  18.942  0.00  0.00    -0.390 OA
ATOM     49  H   UNK d   1      26.918  -9.689  18.259  0.00  0.00     0.210 HD
ENDBRANCH   4  48
BRANCH   3  50
ATOM     50  O   UNK d   1      26.777  -7.056  18.252  0.00  0.00    -0.390 OA
ATOM     51  H   UNK d   1      26.383  -7.530  17.498  0.00  0.00     0.210 HD
ENDBRANCH   3  50
TORSDOF 15
ENDMDL
MODEL 9
REMARK minimizedAffinity -8.09018135REMARK CNNscore 0.218983307REMARK CNNaffinity 4.44742537REMARK  15 active torsions:
REMARK  status: ('A' for Active; 'I' for Inactive)
REMARK    1  A    between atoms: O_2  and  C_21 
REMARK    2  A    between atoms: O_2  and  C_25 
REMARK    3  A    between atoms: O_4  and  C_17 
REMARK    4  A    between atoms: O_5  and  C_24 
REMARK    5  A    between atoms: O_5  and  C_28 
REMARK    6  A    between atoms: O_6  and  C_18 
REMARK    7  A    between atoms: O_7  and  C_19 
REMARK    8  A    between atoms: O_8  and  C_20 
REMARK    9  A    between atoms: O_9  and  C_22 
REMARK   10  A    between atoms: O_10  and  C_23 
REMARK   11  A    between atoms: O_12  and  C_35 
REMARK   12  A    between atoms: O_14  and  C_42 
REMARK   13  A    between atoms: O_15  and  C_40 
REMARK   14  A    between atoms: C_16  and  C_25 
REMARK   15  A    between atoms: C_33  and  C_37 
ROOT
ATOM      1  O   UNK d   1      25.225  -5.173  21.220  0.00  0.00    -0.348 OA
ATOM      2  C   UNK d   1      25.965  -4.700  20.089  0.00  0.00     0.180 C 
ATOM      3  C   UNK d   1      25.934  -5.768  18.982  0.00  0.00     0.180 C 
ATOM      4  C   UNK d   1      26.459  -7.098  19.527  0.00  0.00     0.183 C 
ATOM      5  C   UNK d   1      25.715  -7.510  20.801  0.00  0.00     0.205 C 
ATOM      6  C   UNK d   1      25.775  -6.351  21.813  0.00  0.00     0.298 C 
ENDROOT
BRANCH   6   7
ATOM      7  O   UNK d   1      24.989  -6.702  22.960  0.00  0.00    -0.318 OA
BRANCH   7   8
ATOM      8  C   UNK d   1      25.343  -6.151  24.162  0.00  0.00     0.077 A 
ATOM      9  C   UNK d   1      26.640  -5.940  24.623  0.00  0.00     0.074 A 
ATOM     10  C   UNK d   1      26.862  -5.449  25.916  0.00  0.00     0.089 A 
ATOM     11  O   UNK d   1      28.178  -5.389  26.281  0.00  0.00    -0.340 OA
ATOM     12  C   UNK d   1      25.790  -5.095  26.737  0.00  0.00     0.076 A 
ATOM     13  C   UNK d   1      28.448  -5.317  27.685  0.00  0.00     0.169 C 
ATOM     14  C   UNK d   1      27.543  -4.340  28.415  0.00  0.00     0.121 C 
ATOM     15  C   UNK d   1      26.095  -4.574  28.093  0.00  0.00     0.167 C 
ATOM     16  O   UNK d   1      25.226  -4.285  28.909  0.00  0.00    -0.292 OA
ATOM     17  C   UNK d   1      24.487  -5.271  26.256  0.00  0.00     0.085 A 
ATOM     18  C   UNK d   1      24.268  -5.805  24.982  0.00  0.00     0.074 A 
BRANCH  13  19
ATOM     19  C   UNK d   1      28.585  -6.699  28.322  0.00  0.00    -0.026 A 
ATOM     20  C   UNK d   1      27.723  -7.171  29.323  0.00  0.00     0.049 A 
ATOM     21  C   UNK d   1      27.888  -8.451  29.863  0.00  0.00     0.099 A 
ATOM     22  C   UNK d   1      28.916  -9.297  29.431  0.00  0.00     0.101 A 
ATOM     23  C   UNK d   1      29.780  -8.834  28.440  0.00  0.00     0.040 A 
ATOM     24  C   UNK d   1      29.616  -7.553  27.894  0.00  0.00     0.012 A 
BRANCH  21  25
ATOM     25  O   UNK d   1      27.025  -8.892  30.833  0.00  0.00    -0.358 OA
ATOM     26  H   UNK d   1      26.399  -8.185  31.049  0.00  0.00     0.217 HD
ENDBRANCH  21  25
BRANCH  22  27
ATOM     27  O   UNK d   1      28.980 -10.528  30.028  0.00  0.00    -0.353 OA
ATOM     28  C   UNK d   1      30.136 -11.315  29.783  0.00  0.00     0.210 C 
ENDBRANCH  22  27
ENDBRANCH  13  19
BRANCH  17  29
ATOM     29  O   UNK d   1      23.404  -4.945  27.022  0.00  0.00    -0.360 OA
ATOM     30  H   UNK d   1      22.581  -5.146  26.549  0.00  0.00     0.217 HD
ENDBRANCH  17  29
ENDBRANCH   7   8
ENDBRANCH   6   7
BRANCH   5  31
ATOM     31  O   UNK d   1      26.329  -8.701  21.318  0.00  0.00    -0.388 OA
ATOM     32  H   UNK d   1      26.316  -9.340  20.579  0.00  0.00     0.210 HD
ENDBRANCH   5  31
BRANCH   2  33
ATOM     33  C   UNK d   1      25.331  -3.388  19.589  0.00  0.00     0.205 C 
BRANCH  33  34
ATOM     34  O   UNK d   1      24.830  -3.496  18.251  0.00  0.00    -0.356 OA
BRANCH  34  35
ATOM     35  C   UNK d   1      24.776  -2.248  17.549  0.00  0.00     0.291 C 
ATOM     36  O   UNK d   1      24.949  -1.174  18.487  0.00  0.00    -0.351 OA
ATOM     37  C   UNK d   1      24.363   0.080  18.130  0.00  0.00     0.152 C 
ATOM     38  C   UNK d   1      24.276   0.259  16.610  0.00  0.00     0.178 C 
ATOM     39  C   UNK d   1      25.198   1.166  18.802  0.00  0.00     0.042 C 
ATOM     40  C   UNK d   1      23.346  -0.817  16.030  0.00  0.00     0.183 C 
ATOM     41  C   UNK d   1      23.433  -2.151  16.793  0.00  0.00     0.204 C 
BRANCH  38  42
ATOM     42  O   UNK d   1      23.778   1.539  16.217  0.00  0.00    -0.390 OA
ATOM     43  H   UNK d   1      24.467   2.199  16.411  0.00  0.00     0.210 HD
ENDBRANCH  38  42
BRANCH  40  44
ATOM     44  O   UNK d   1      23.687  -1.022  14.641  0.00  0.00    -0.390 OA
ATOM     45  H   UNK d   1      23.588  -0.145  14.219  0.00  0.00     0.210 HD
ENDBRANCH  40  44
BRANCH  41  46
ATOM     46  O   UNK d   1      23.223  -3.239  15.881  0.00  0.00    -0.388 OA
ATOM     47  H   UNK d   1      23.509  -2.902  15.005  0.00  0.00     0.210 HD
ENDBRANCH  41  46
ENDBRANCH  34  35
ENDBRANCH  33  34
ENDBRANCH   2  33
BRANCH   4  48
ATOM     48  O   UNK d   1      26.308  -8.133  18.540  0.00  0.00    -0.390 OA
ATOM     49  H   UNK d   1      27.024  -7.998  17.892  0.00  0.00     0.210 HD
ENDBRANCH   4  48
BRANCH   3  50
ATOM     50  O   UNK d   1      26.731  -5.377  17.862  0.00  0.00    -0.390 OA
ATOM     51  H   UNK d   1      26.405  -5.876  17.092  0.00  0.00     0.210 HD
ENDBRANCH   3  50
TORSDOF 15
ENDMDL
