MODEL 1
REMARK minimizedAffinity -8.21431828REMARK CNNscore 0.569263279REMARK CNNaffinity 6.18432856REMARK  10 active torsions:
REMARK  status: ('A' for Active; 'I' for Inactive)
REMARK       I    between atoms: N_6  and  C_20 
REMARK    1  A    between atoms: N_6  and  C_21 
REMARK    2  A    between atoms: N_6  and  C_24 
REMARK    3  A    between atoms: N_7  and  C_14 
REMARK    4  A    between atoms: N_7  and  C_22 
REMARK    5  A    between atoms: N_9  and  C_35 
REMARK    6  A    between atoms: C_12  and  C_14 
REMARK    7  A    between atoms: C_15  and  C_20 
REMARK    8  A    between atoms: C_21  and  C_23 
REMARK    9  A    between atoms: C_23  and  C_31 
REMARK   10  A    between atoms: C_30  and  C_35 
ROOT
ATOM      1  N   LIG d   1       9.111  16.664   3.251  0.00  0.00    -0.337 N 
ATOM      2  N   LIG d   1       9.720  16.295   1.150  0.00  0.00    -0.232 NA
ATOM      3  C   LIG d   1       8.807  17.821   2.572  0.00  0.00     0.064 A 
ATOM      4  C   LIG d   1       9.710  15.790   2.370  0.00  0.00     0.120 A 
ATOM      5  C   LIG d   1       9.162  17.546   1.253  0.00  0.00     0.086 A 
ATOM      6  C   LIG d   1       8.390  19.746   0.622  0.00  0.00     0.035 A 
ATOM      7  C   LIG d   1       8.925  18.500   0.253  0.00  0.00     0.051 A 
ATOM      8  C   LIG d   1       8.247  19.042   2.963  0.00  0.00     0.033 A 
ATOM      9  C   LIG d   1       8.051  19.998   1.961  0.00  0.00     0.019 A 
ATOM     10  C   LIG d   1       8.819  16.393   4.637  0.00  0.00     0.158 C 
ENDROOT
BRANCH   4  11
ATOM     11  C   LIG d   1      10.250  14.440   2.747  0.00  0.00     0.171 C 
BRANCH  11  12
ATOM     12  N   LIG d   1       9.204  13.428   2.873  0.00  0.00    -0.286 NA
ATOM     13  H   LIG d   1       9.070  13.206   3.862  0.00  0.00     0.128 HD
BRANCH  12  14
ATOM     14  C   LIG d   1       7.981  13.633   2.223  0.00  0.00     0.008 A 
ATOM     15  C   LIG d   1       7.809  13.467   0.843  0.00  0.00     0.024 A 
ATOM     16  C   LIG d   1       6.549  13.601   0.244  0.00  0.00     0.017 A 
ATOM     17  C   LIG d   1       5.423  13.880   1.026  0.00  0.00     0.009 A 
ATOM     18  C   LIG d   1       5.571  13.994   2.409  0.00  0.00     0.017 A 
ATOM     19  C   LIG d   1       6.834  13.860   2.997  0.00  0.00     0.024 A 
BRANCH  17  20
ATOM     20  C   LIG d   1       4.090  14.054   0.400  0.00  0.00     0.123 C 
ATOM     21  N   LIG d   1       3.050  14.300   1.169  0.00  0.00    -0.284 NA
ATOM     22  H   LIG d   1       2.156  14.409   0.676  0.00  0.00     0.188 HD
BRANCH  20  23
ATOM     23  N   LIG d   1       3.909  13.994  -0.861  0.00  0.00    -0.384 N 
ATOM     24  H   LIG d   1       2.964  14.139  -1.199  0.00  0.00     0.157 HD
ATOM     25  H   LIG d   1       4.675  13.860  -1.508  0.00  0.00     0.157 HD
ENDBRANCH  20  23
ENDBRANCH  17  20
ENDBRANCH  12  14
ENDBRANCH  11  12
ENDBRANCH   4  11
BRANCH   6  26
ATOM     26  C   LIG d   1       8.048  20.790  -0.390  0.00  0.00     0.259 C 
ATOM     27  O   LIG d   1       7.002  20.612  -1.025  0.00  0.00    -0.267 OA
ATOM     28  N   LIG d   1       8.935  21.841  -0.660  0.00  0.00    -0.298 N 
BRANCH  28  29
ATOM     29  C   LIG d   1       8.772  22.539  -1.947  0.00  0.00     0.144 C 
BRANCH  29  30
ATOM     30  C   LIG d   1       7.823  23.730  -1.867  0.00  0.00     0.133 C 
BRANCH  30  31
ATOM     31  C   LIG d   1       6.588  23.589  -2.741  0.00  0.00     0.174 C 
ATOM     32  O   LIG d   1       6.758  22.930  -3.805  0.00  0.00    -0.648 OA
ATOM     33  O   LIG d   1       5.531  24.118  -2.297  0.00  0.00    -0.648 OA
ENDBRANCH  30  31
ENDBRANCH  29  30
ENDBRANCH  28  29
BRANCH  28  34
ATOM     34  C   LIG d   1       9.716  22.457   0.364  0.00  0.00     0.132 A 
ATOM     35  N   LIG d   1       9.094  23.307   1.219  0.00  0.00    -0.243 NA
ATOM     36  C   LIG d   1       9.832  23.903   2.182  0.00  0.00     0.119 A 
ATOM     37  C   LIG d   1      11.189  23.706   2.349  0.00  0.00     0.019 A 
ATOM     38  C   LIG d   1      11.824  22.839   1.476  0.00  0.00     0.005 A 
ATOM     39  C   LIG d   1      11.083  22.211   0.476  0.00  0.00     0.051 A 
ENDBRANCH  28  34
ENDBRANCH   6  26
TORSDOF 10
ENDMDL
MODEL 2
REMARK minimizedAffinity -7.71784782REMARK CNNscore 0.430681109REMARK CNNaffinity 5.66414022REMARK  10 active torsions:
REMARK  status: ('A' for Active; 'I' for Inactive)
REMARK       I    between atoms: N_6  and  C_20 
REMARK    1  A    between atoms: N_6  and  C_21 
REMARK    2  A    between atoms: N_6  and  C_24 
REMARK    3  A    between atoms: N_7  and  C_14 
REMARK    4  A    between atoms: N_7  and  C_22 
REMARK    5  A    between atoms: N_9  and  C_35 
REMARK    6  A    between atoms: C_12  and  C_14 
REMARK    7  A    between atoms: C_15  and  C_20 
REMARK    8  A    between atoms: C_21  and  C_23 
REMARK    9  A    between atoms: C_23  and  C_31 
REMARK   10  A    between atoms: C_30  and  C_35 
ROOT
ATOM      1  N   LIG d   1       8.611  16.462   3.408  0.00  0.00    -0.337 N 
ATOM      2  N   LIG d   1       9.256  16.023   1.331  0.00  0.00    -0.232 NA
ATOM      3  C   LIG d   1       8.421  17.631   2.709  0.00  0.00     0.064 A 
ATOM      4  C   LIG d   1       9.168  15.534   2.554  0.00  0.00     0.120 A 
ATOM      5  C   LIG d   1       8.795  17.315   1.405  0.00  0.00     0.086 A 
ATOM      6  C   LIG d   1       8.218  19.561   0.729  0.00  0.00     0.035 A 
ATOM      7  C   LIG d   1       8.666  18.273   0.389  0.00  0.00     0.051 A 
ATOM      8  C   LIG d   1       7.946  18.897   3.071  0.00  0.00     0.033 A 
ATOM      9  C   LIG d   1       7.858  19.855   2.054  0.00  0.00     0.019 A 
ATOM     10  C   LIG d   1       8.255  16.230   4.786  0.00  0.00     0.158 C 
ENDROOT
BRANCH   4  11
ATOM     11  C   LIG d   1       9.588  14.151   2.961  0.00  0.00     0.171 C 
BRANCH  11  12
ATOM     12  N   LIG d   1       8.878  13.105   2.227  0.00  0.00    -0.286 NA
ATOM     13  H   LIG d   1       9.514  12.685   1.544  0.00  0.00     0.128 HD
BRANCH  12  14
ATOM     14  C   LIG d   1       8.179  12.128   2.945  0.00  0.00     0.008 A 
ATOM     15  C   LIG d   1       7.137  11.371   2.394  0.00  0.00     0.024 A 
ATOM     16  C   LIG d   1       6.519  10.345   3.122  0.00  0.00     0.017 A 
ATOM     17  C   LIG d   1       6.953  10.037   4.416  0.00  0.00     0.009 A 
ATOM     18  C   LIG d   1       8.026  10.748   4.956  0.00  0.00     0.017 A 
ATOM     19  C   LIG d   1       8.635  11.772   4.222  0.00  0.00     0.024 A 
BRANCH  17  20
ATOM     20  C   LIG d   1       6.287   8.974   5.206  0.00  0.00     0.123 C 
ATOM     21  N   LIG d   1       5.412   9.317   6.129  0.00  0.00    -0.284 NA
ATOM     22  H   LIG d   1       4.986   8.535   6.641  0.00  0.00     0.188 HD
BRANCH  20  23
ATOM     23  N   LIG d   1       6.512   7.733   5.017  0.00  0.00    -0.384 N 
ATOM     24  H   LIG d   1       6.000   7.077   5.596  0.00  0.00     0.157 HD
ATOM     25  H   LIG d   1       7.133   7.405   4.289  0.00  0.00     0.157 HD
ENDBRANCH  20  23
ENDBRANCH  17  20
ENDBRANCH  12  14
ENDBRANCH  11  12
ENDBRANCH   4  11
BRANCH   6  26
ATOM     26  C   LIG d   1       7.992  20.617  -0.303  0.00  0.00     0.259 C 
ATOM     27  O   LIG d   1       6.946  20.526  -0.955  0.00  0.00    -0.267 OA
ATOM     28  N   LIG d   1       8.977  21.578  -0.568  0.00  0.00    -0.298 N 
BRANCH  28  29
ATOM     29  C   LIG d   1       8.901  22.270  -1.867  0.00  0.00     0.144 C 
BRANCH  29  30
ATOM     30  C   LIG d   1       8.491  23.733  -1.745  0.00  0.00     0.133 C 
BRANCH  30  31
ATOM     31  C   LIG d   1       6.992  23.939  -1.605  0.00  0.00     0.174 C 
ATOM     32  O   LIG d   1       6.594  24.191  -0.433  0.00  0.00    -0.648 OA
ATOM     33  O   LIG d   1       6.320  23.866  -2.672  0.00  0.00    -0.648 OA
ENDBRANCH  30  31
ENDBRANCH  29  30
ENDBRANCH  28  29
BRANCH  28  34
ATOM     34  C   LIG d   1       9.792  22.136   0.462  0.00  0.00     0.132 A 
ATOM     35  N   LIG d   1       9.194  22.906   1.405  0.00  0.00    -0.243 NA
ATOM     36  C   LIG d   1       9.964  23.446   2.375  0.00  0.00     0.119 A 
ATOM     37  C   LIG d   1      11.331  23.269   2.466  0.00  0.00     0.019 A 
ATOM     38  C   LIG d   1      11.942  22.483   1.504  0.00  0.00     0.005 A 
ATOM     39  C   LIG d   1      11.167  21.913   0.493  0.00  0.00     0.051 A 
ENDBRANCH  28  34
ENDBRANCH   6  26
TORSDOF 10
ENDMDL
MODEL 3
REMARK minimizedAffinity -5.16380072REMARK CNNscore 0.360231251REMARK CNNaffinity 4.8953228REMARK  10 active torsions:
REMARK  status: ('A' for Active; 'I' for Inactive)
REMARK       I    between atoms: N_6  and  C_20 
REMARK    1  A    between atoms: N_6  and  C_21 
REMARK    2  A    between atoms: N_6  and  C_24 
REMARK    3  A    between atoms: N_7  and  C_14 
REMARK    4  A    between atoms: N_7  and  C_22 
REMARK    5  A    between atoms: N_9  and  C_35 
REMARK    6  A    between atoms: C_12  and  C_14 
REMARK    7  A    between atoms: C_15  and  C_20 
REMARK    8  A    between atoms: C_21  and  C_23 
REMARK    9  A    between atoms: C_23  and  C_31 
REMARK   10  A    between atoms: C_30  and  C_35 
ROOT
ATOM      1  N   LIG d   1      21.750  29.978 -13.268  0.00  0.00    -0.337 N 
ATOM      2  N   LIG d   1      22.004  27.973 -14.182  0.00  0.00    -0.232 NA
ATOM      3  C   LIG d   1      23.107  29.751 -13.285  0.00  0.00     0.064 A 
ATOM      4  C   LIG d   1      21.118  28.859 -13.766  0.00  0.00     0.120 A 
ATOM      5  C   LIG d   1      23.237  28.507 -13.898  0.00  0.00     0.086 A 
ATOM      6  C   LIG d   1      25.637  28.700 -13.703  0.00  0.00     0.035 A 
ATOM      7  C   LIG d   1      24.514  27.980 -14.145  0.00  0.00     0.051 A 
ATOM      8  C   LIG d   1      24.209  30.502 -12.860  0.00  0.00     0.033 A 
ATOM      9  C   LIG d   1      25.474  29.947 -13.078  0.00  0.00     0.019 A 
ATOM     10  C   LIG d   1      21.098  31.191 -12.839  0.00  0.00     0.158 C 
ENDROOT
BRANCH   4  11
ATOM     11  C   LIG d   1      19.628  28.690 -13.846  0.00  0.00     0.171 C 
BRANCH  11  12
ATOM     12  N   LIG d   1      19.011  29.575 -14.833  0.00  0.00    -0.286 NA
ATOM     13  H   LIG d   1      18.942  29.082 -15.726  0.00  0.00     0.128 HD
BRANCH  12  14
ATOM     14  C   LIG d   1      17.812  30.220 -14.508  0.00  0.00     0.008 A 
ATOM     15  C   LIG d   1      16.740  29.574 -13.879  0.00  0.00     0.024 A 
ATOM     16  C   LIG d   1      15.589  30.276 -13.496  0.00  0.00     0.017 A 
ATOM     17  C   LIG d   1      15.500  31.655 -13.712  0.00  0.00     0.009 A 
ATOM     18  C   LIG d   1      16.584  32.321 -14.288  0.00  0.00     0.017 A 
ATOM     19  C   LIG d   1      17.727  31.610 -14.669  0.00  0.00     0.024 A 
BRANCH  17  20
ATOM     20  C   LIG d   1      14.276  32.404 -13.338  0.00  0.00     0.123 C 
ATOM     21  N   LIG d   1      13.895  33.420 -14.084  0.00  0.00    -0.284 NA
ATOM     22  H   LIG d   1      13.041  33.896 -13.771  0.00  0.00     0.188 HD
BRANCH  20  23
ATOM     23  N   LIG d   1      13.562  32.092 -12.328  0.00  0.00    -0.384 N 
ATOM     24  H   LIG d   1      12.734  32.653 -12.158  0.00  0.00     0.157 HD
ATOM     25  H   LIG d   1      13.772  31.292 -11.748  0.00  0.00     0.157 HD
ENDBRANCH  20  23
ENDBRANCH  17  20
ENDBRANCH  12  14
ENDBRANCH  11  12
ENDBRANCH   4  11
BRANCH   6  26
ATOM     26  C   LIG d   1      27.030  28.239 -13.984  0.00  0.00     0.259 C 
ATOM     27  O   LIG d   1      27.427  28.378 -15.146  0.00  0.00    -0.267 OA
ATOM     28  N   LIG d   1      27.781  27.591 -12.993  0.00  0.00    -0.298 N 
BRANCH  28  29
ATOM     29  C   LIG d   1      28.917  26.769 -13.447  0.00  0.00     0.144 C 
BRANCH  29  30
ATOM     30  C   LIG d   1      28.688  25.274 -13.260  0.00  0.00     0.133 C 
BRANCH  30  31
ATOM     31  C   LIG d   1      28.800  24.471 -14.545  0.00  0.00     0.174 C 
ATOM     32  O   LIG d   1      28.559  25.118 -15.603  0.00  0.00    -0.648 OA
ATOM     33  O   LIG d   1      29.148  23.264 -14.417  0.00  0.00    -0.648 OA
ENDBRANCH  30  31
ENDBRANCH  29  30
ENDBRANCH  28  29
BRANCH  28  34
ATOM     34  C   LIG d   1      27.708  27.965 -11.618  0.00  0.00     0.132 A 
ATOM     35  N   LIG d   1      26.850  27.288 -10.814  0.00  0.00    -0.243 NA
ATOM     36  C   LIG d   1      26.769  27.647  -9.514  0.00  0.00     0.119 A 
ATOM     37  C   LIG d   1      27.503  28.670  -8.947  0.00  0.00     0.019 A 
ATOM     38  C   LIG d   1      28.379  29.362  -9.767  0.00  0.00     0.005 A 
ATOM     39  C   LIG d   1      28.482  29.008 -11.112  0.00  0.00     0.051 A 
ENDBRANCH  28  34
ENDBRANCH   6  26
TORSDOF 10
ENDMDL
MODEL 4
REMARK minimizedAffinity -6.16823959REMARK CNNscore 0.316913515REMARK CNNaffinity 5.015872REMARK  10 active torsions:
REMARK  status: ('A' for Active; 'I' for Inactive)
REMARK       I    between atoms: N_6  and  C_20 
REMARK    1  A    between atoms: N_6  and  C_21 
REMARK    2  A    between atoms: N_6  and  C_24 
REMARK    3  A    between atoms: N_7  and  C_14 
REMARK    4  A    between atoms: N_7  and  C_22 
REMARK    5  A    between atoms: N_9  and  C_35 
REMARK    6  A    between atoms: C_12  and  C_14 
REMARK    7  A    between atoms: C_15  and  C_20 
REMARK    8  A    between atoms: C_21  and  C_23 
REMARK    9  A    between atoms: C_23  and  C_31 
REMARK   10  A    between atoms: C_30  and  C_35 
ROOT
ATOM      1  N   LIG d   1      25.950   3.835  21.820  0.00  0.00    -0.337 N 
ATOM      2  N   LIG d   1      24.000   4.237  22.799  0.00  0.00    -0.232 NA
ATOM      3  C   LIG d   1      25.968   3.108  22.987  0.00  0.00     0.064 A 
ATOM      4  C   LIG d   1      24.770   4.545  21.771  0.00  0.00     0.120 A 
ATOM      5  C   LIG d   1      24.721   3.348  23.559  0.00  0.00     0.086 A 
ATOM      6  C   LIG d   1      25.307   1.870  25.377  0.00  0.00     0.035 A 
ATOM      7  C   LIG d   1      24.362   2.701  24.751  0.00  0.00     0.051 A 
ATOM      8  C   LIG d   1      26.917   2.265  23.575  0.00  0.00     0.033 A 
ATOM      9  C   LIG d   1      26.561   1.656  24.784  0.00  0.00     0.019 A 
ATOM     10  C   LIG d   1      26.971   3.830  20.801  0.00  0.00     0.158 C 
ENDROOT
BRANCH   4  11
ATOM     11  C   LIG d   1      24.405   5.512  20.682  0.00  0.00     0.171 C 
BRANCH  11  12
ATOM     12  N   LIG d   1      23.104   6.143  20.897  0.00  0.00    -0.286 NA
ATOM     13  H   LIG d   1      22.923   6.202  21.902  0.00  0.00     0.128 HD
BRANCH  12  14
ATOM     14  C   LIG d   1      22.823   7.355  20.254  0.00  0.00     0.008 A 
ATOM     15  C   LIG d   1      21.928   7.463  19.182  0.00  0.00     0.024 A 
ATOM     16  C   LIG d   1      21.613   8.708  18.620  0.00  0.00     0.017 A 
ATOM     17  C   LIG d   1      22.171   9.879  19.142  0.00  0.00     0.009 A 
ATOM     18  C   LIG d   1      23.022   9.790  20.245  0.00  0.00     0.017 A 
ATOM     19  C   LIG d   1      23.332   8.542  20.797  0.00  0.00     0.024 A 
BRANCH  17  20
ATOM     20  C   LIG d   1      21.868  11.199  18.537  0.00  0.00     0.123 C 
ATOM     21  N   LIG d   1      21.205  12.090  19.246  0.00  0.00    -0.284 NA
ATOM     22  H   LIG d   1      21.027  12.982  18.771  0.00  0.00     0.188 HD
BRANCH  20  23
ATOM     23  N   LIG d   1      22.239  11.517  17.360  0.00  0.00    -0.384 N 
ATOM     24  H   LIG d   1      21.998  12.447  17.035  0.00  0.00     0.157 HD
ATOM     25  H   LIG d   1      22.795  10.897  16.786  0.00  0.00     0.157 HD
ENDBRANCH  20  23
ENDBRANCH  17  20
ENDBRANCH  12  14
ENDBRANCH  11  12
ENDBRANCH   4  11
BRANCH   6  26
ATOM     26  C   LIG d   1      24.981   1.096  26.613  0.00  0.00     0.259 C 
ATOM     27  O   LIG d   1      25.098   1.703  27.683  0.00  0.00    -0.267 OA
ATOM     28  N   LIG d   1      24.668  -0.268  26.538  0.00  0.00    -0.298 N 
BRANCH  28  29
ATOM     29  C   LIG d   1      24.818  -1.055  27.775  0.00  0.00     0.144 C 
BRANCH  29  30
ATOM     30  C   LIG d   1      25.912  -2.113  27.685  0.00  0.00     0.133 C 
BRANCH  30  31
ATOM     31  C   LIG d   1      26.043  -2.967  28.935  0.00  0.00     0.174 C 
ATOM     32  O   LIG d   1      25.034  -2.963  29.693  0.00  0.00    -0.648 OA
ATOM     33  O   LIG d   1      27.127  -3.604  29.060  0.00  0.00    -0.648 OA
ENDBRANCH  30  31
ENDBRANCH  29  30
ENDBRANCH  28  29
BRANCH  28  34
ATOM     34  C   LIG d   1      23.910  -0.816  25.461  0.00  0.00     0.132 A 
ATOM     35  N   LIG d   1      24.584  -1.375  24.423  0.00  0.00    -0.243 NA
ATOM     36  C   LIG d   1      23.870  -1.884  23.395  0.00  0.00     0.119 A 
ATOM     37  C   LIG d   1      22.491  -1.867  23.327  0.00  0.00     0.019 A 
ATOM     38  C   LIG d   1      21.803  -1.297  24.385  0.00  0.00     0.005 A 
ATOM     39  C   LIG d   1      22.518  -0.767  25.460  0.00  0.00     0.051 A 
ENDBRANCH  28  34
ENDBRANCH   6  26
TORSDOF 10
ENDMDL
MODEL 5
REMARK minimizedAffinity -6.40051365REMARK CNNscore 0.31007567REMARK CNNaffinity 5.01216888REMARK  10 active torsions:
REMARK  status: ('A' for Active; 'I' for Inactive)
REMARK       I    between atoms: N_6  and  C_20 
REMARK    1  A    between atoms: N_6  and  C_21 
REMARK    2  A    between atoms: N_6  and  C_24 
REMARK    3  A    between atoms: N_7  and  C_14 
REMARK    4  A    between atoms: N_7  and  C_22 
REMARK    5  A    between atoms: N_9  and  C_35 
REMARK    6  A    between atoms: C_12  and  C_14 
REMARK    7  A    between atoms: C_15  and  C_20 
REMARK    8  A    between atoms: C_21  and  C_23 
REMARK    9  A    between atoms: C_23  and  C_31 
REMARK   10  A    between atoms: C_30  and  C_35 
ROOT
ATOM      1  N   LIG d   1      23.880  10.544  12.680  0.00  0.00    -0.337 N 
ATOM      2  N   LIG d   1      22.020  11.693  13.056  0.00  0.00    -0.232 NA
ATOM      3  C   LIG d   1      23.947  10.931  13.999  0.00  0.00     0.064 A 
ATOM      4  C   LIG d   1      22.730  11.071  12.133  0.00  0.00     0.120 A 
ATOM      5  C   LIG d   1      22.752  11.614  14.215  0.00  0.00     0.086 A 
ATOM      6  C   LIG d   1      23.398  11.945  16.519  0.00  0.00     0.035 A 
ATOM      7  C   LIG d   1      22.449  12.102  15.495  0.00  0.00     0.051 A 
ATOM      8  C   LIG d   1      24.898  10.736  15.007  0.00  0.00     0.033 A 
ATOM      9  C   LIG d   1      24.599  11.261  16.269  0.00  0.00     0.019 A 
ATOM     10  C   LIG d   1      24.828   9.701  11.995  0.00  0.00     0.158 C 
ENDROOT
BRANCH   4  11
ATOM     11  C   LIG d   1      22.333  10.928  10.692  0.00  0.00     0.171 C 
BRANCH  11  12
ATOM     12  N   LIG d   1      21.874  12.185  10.104  0.00  0.00    -0.286 NA
ATOM     13  H   LIG d   1      22.215  12.964  10.673  0.00  0.00     0.128 HD
BRANCH  12  14
ATOM     14  C   LIG d   1      22.089  12.414   8.739  0.00  0.00     0.008 A 
ATOM     15  C   LIG d   1      21.345  13.335   7.991  0.00  0.00     0.024 A 
ATOM     16  C   LIG d   1      21.648  13.594   6.647  0.00  0.00     0.017 A 
ATOM     17  C   LIG d   1      22.725  12.950   6.029  0.00  0.00     0.009 A 
ATOM     18  C   LIG d   1      23.508  12.071   6.780  0.00  0.00     0.017 A 
ATOM     19  C   LIG d   1      23.196  11.817   8.120  0.00  0.00     0.024 A 
BRANCH  17  20
ATOM     20  C   LIG d   1      23.036  13.193   4.600  0.00  0.00     0.123 C 
ATOM     21  N   LIG d   1      23.168  14.433   4.177  0.00  0.00    -0.284 NA
ATOM     22  H   LIG d   1      23.383  14.535   3.178  0.00  0.00     0.188 HD
BRANCH  20  23
ATOM     23  N   LIG d   1      23.201  12.247   3.762  0.00  0.00    -0.384 N 
ATOM     24  H   LIG d   1      23.425  12.509   2.808  0.00  0.00     0.157 HD
ATOM     25  H   LIG d   1      23.164  11.274   4.036  0.00  0.00     0.157 HD
ENDBRANCH  20  23
ENDBRANCH  17  20
ENDBRANCH  12  14
ENDBRANCH  11  12
ENDBRANCH   4  11
BRANCH   6  26
ATOM     26  C   LIG d   1      23.124  12.378  17.922  0.00  0.00     0.259 C 
ATOM     27  O   LIG d   1      22.934  13.587  18.092  0.00  0.00    -0.267 OA
ATOM     28  N   LIG d   1      23.192  11.459  18.979  0.00  0.00    -0.298 N 
BRANCH  28  29
ATOM     29  C   LIG d   1      23.376  12.013  20.333  0.00  0.00     0.144 C 
BRANCH  29  30
ATOM     30  C   LIG d   1      22.235  11.668  21.282  0.00  0.00     0.133 C 
BRANCH  30  31
ATOM     31  C   LIG d   1      21.100  12.679  21.269  0.00  0.00     0.174 C 
ATOM     32  O   LIG d   1      19.956  12.202  21.507  0.00  0.00    -0.648 OA
ATOM     33  O   LIG d   1      21.430  13.879  21.053  0.00  0.00    -0.648 OA
ENDBRANCH  30  31
ENDBRANCH  29  30
ENDBRANCH  28  29
BRANCH  28  34
ATOM     34  C   LIG d   1      22.755  10.108  18.841  0.00  0.00     0.132 A 
ATOM     35  N   LIG d   1      23.613   9.118  19.195  0.00  0.00    -0.243 NA
ATOM     36  C   LIG d   1      23.208   7.837  19.054  0.00  0.00     0.119 A 
ATOM     37  C   LIG d   1      21.971   7.466  18.564  0.00  0.00     0.019 A 
ATOM     38  C   LIG d   1      21.095   8.476  18.203  0.00  0.00     0.005 A 
ATOM     39  C   LIG d   1      21.490   9.807  18.341  0.00  0.00     0.051 A 
ENDBRANCH  28  34
ENDBRANCH   6  26
TORSDOF 10
ENDMDL
MODEL 6
REMARK minimizedAffinity -7.02839136REMARK CNNscore 0.309615225REMARK CNNaffinity 5.90896797REMARK  10 active torsions:
REMARK  status: ('A' for Active; 'I' for Inactive)
REMARK       I    between atoms: N_6  and  C_20 
REMARK    1  A    between atoms: N_6  and  C_21 
REMARK    2  A    between atoms: N_6  and  C_24 
REMARK    3  A    between atoms: N_7  and  C_14 
REMARK    4  A    between atoms: N_7  and  C_22 
REMARK    5  A    between atoms: N_9  and  C_35 
REMARK    6  A    between atoms: C_12  and  C_14 
REMARK    7  A    between atoms: C_15  and  C_20 
REMARK    8  A    between atoms: C_21  and  C_23 
REMARK    9  A    between atoms: C_23  and  C_31 
REMARK   10  A    between atoms: C_30  and  C_35 
ROOT
ATOM      1  N   LIG d   1       8.965  17.611   2.427  0.00  0.00    -0.337 N 
ATOM      2  N   LIG d   1      10.196  17.740   0.586  0.00  0.00    -0.232 NA
ATOM      3  C   LIG d   1       9.174  18.955   2.218  0.00  0.00     0.064 A 
ATOM      4  C   LIG d   1       9.644  16.912   1.453  0.00  0.00     0.120 A 
ATOM      5  C   LIG d   1       9.913  19.006   1.039  0.00  0.00     0.086 A 
ATOM      6  C   LIG d   1       9.896  21.418   1.172  0.00  0.00     0.035 A 
ATOM      7  C   LIG d   1      10.256  20.248   0.483  0.00  0.00     0.051 A 
ATOM      8  C   LIG d   1       8.778  20.104   2.911  0.00  0.00     0.033 A 
ATOM      9  C   LIG d   1       9.160  21.335   2.365  0.00  0.00     0.019 A 
ATOM     10  C   LIG d   1       8.145  17.031   3.462  0.00  0.00     0.158 C 
ENDROOT
BRANCH   4  11
ATOM     11  C   LIG d   1       9.718  15.414   1.379  0.00  0.00     0.171 C 
BRANCH  11  12
ATOM     12  N   LIG d   1       8.497  14.812   0.847  0.00  0.00    -0.286 NA
ATOM     13  H   LIG d   1       8.622  14.629  -0.152  0.00  0.00     0.128 HD
BRANCH  12  14
ATOM     14  C   LIG d   1       7.942  13.708   1.506  0.00  0.00     0.008 A 
ATOM     15  C   LIG d   1       6.931  12.913   0.951  0.00  0.00     0.024 A 
ATOM     16  C   LIG d   1       6.463  11.767   1.608  0.00  0.00     0.017 A 
ATOM     17  C   LIG d   1       7.020  11.378   2.831  0.00  0.00     0.009 A 
ATOM     18  C   LIG d   1       8.065  12.130   3.368  0.00  0.00     0.017 A 
ATOM     19  C   LIG d   1       8.525  13.274   2.705  0.00  0.00     0.024 A 
BRANCH  17  20
ATOM     20  C   LIG d   1       6.512  10.184   3.549  0.00  0.00     0.123 C 
ATOM     21  N   LIG d   1       7.228   9.677   4.531  0.00  0.00    -0.284 NA
ATOM     22  H   LIG d   1       6.822   8.852   4.988  0.00  0.00     0.188 HD
BRANCH  20  23
ATOM     23  N   LIG d   1       5.395   9.636   3.268  0.00  0.00    -0.384 N 
ATOM     24  H   LIG d   1       5.124   8.832   3.823  0.00  0.00     0.157 HD
ATOM     25  H   LIG d   1       4.777  10.009   2.560  0.00  0.00     0.157 HD
ENDBRANCH  20  23
ENDBRANCH  17  20
ENDBRANCH  12  14
ENDBRANCH  11  12
ENDBRANCH   4  11
BRANCH   6  26
ATOM     26  C   LIG d   1      10.166  22.777   0.615  0.00  0.00     0.259 C 
ATOM     27  O   LIG d   1      11.346  23.144   0.621  0.00  0.00    -0.267 OA
ATOM     28  N   LIG d   1       9.110  23.608   0.217  0.00  0.00    -0.298 N 
BRANCH  28  29
ATOM     29  C   LIG d   1       9.394  25.052   0.128  0.00  0.00     0.144 C 
BRANCH  29  30
ATOM     30  C   LIG d   1       9.091  25.803   1.419  0.00  0.00     0.133 C 
BRANCH  30  31
ATOM     31  C   LIG d   1      10.231  26.691   1.893  0.00  0.00     0.174 C 
ATOM     32  O   LIG d   1      10.229  27.861   1.419  0.00  0.00    -0.648 OA
ATOM     33  O   LIG d   1      11.029  26.173   2.723  0.00  0.00    -0.648 OA
ENDBRANCH  30  31
ENDBRANCH  29  30
ENDBRANCH  28  29
BRANCH  28  34
ATOM     34  C   LIG d   1       7.938  23.097  -0.416  0.00  0.00     0.132 A 
ATOM     35  N   LIG d   1       6.746  23.268   0.210  0.00  0.00    -0.243 NA
ATOM     36  C   LIG d   1       5.635  22.774  -0.380  0.00  0.00     0.119 A 
ATOM     37  C   LIG d   1       5.634  22.096  -1.583  0.00  0.00     0.019 A 
ATOM     38  C   LIG d   1       6.850  21.921  -2.222  0.00  0.00     0.005 A 
ATOM     39  C   LIG d   1       8.010  22.424  -1.634  0.00  0.00     0.051 A 
ENDBRANCH  28  34
ENDBRANCH   6  26
TORSDOF 10
ENDMDL
MODEL 7
REMARK minimizedAffinity -5.8805337REMARK CNNscore 0.293388814REMARK CNNaffinity 5.15234709REMARK  10 active torsions:
REMARK  status: ('A' for Active; 'I' for Inactive)
REMARK       I    between atoms: N_6  and  C_20 
REMARK    1  A    between atoms: N_6  and  C_21 
REMARK    2  A    between atoms: N_6  and  C_24 
REMARK    3  A    between atoms: N_7  and  C_14 
REMARK    4  A    between atoms: N_7  and  C_22 
REMARK    5  A    between atoms: N_9  and  C_35 
REMARK    6  A    between atoms: C_12  and  C_14 
REMARK    7  A    between atoms: C_15  and  C_20 
REMARK    8  A    between atoms: C_21  and  C_23 
REMARK    9  A    between atoms: C_23  and  C_31 
REMARK   10  A    between atoms: C_30  and  C_35 
ROOT
ATOM      1  N   LIG d   1      27.096   5.091  15.838  0.00  0.00    -0.337 N 
ATOM      2  N   LIG d   1      26.159   3.531  17.106  0.00  0.00    -0.232 NA
ATOM      3  C   LIG d   1      26.755   5.726  17.010  0.00  0.00     0.064 A 
ATOM      4  C   LIG d   1      26.669   3.783  15.915  0.00  0.00     0.120 A 
ATOM      5  C   LIG d   1      26.207   4.717  17.798  0.00  0.00     0.086 A 
ATOM      6  C   LIG d   1      25.901   6.320  19.579  0.00  0.00     0.035 A 
ATOM      7  C   LIG d   1      25.802   4.999  19.111  0.00  0.00     0.051 A 
ATOM      8  C   LIG d   1      26.891   7.044  17.459  0.00  0.00     0.033 A 
ATOM      9  C   LIG d   1      26.448   7.319  18.757  0.00  0.00     0.019 A 
ATOM     10  C   LIG d   1      27.811   5.678  14.732  0.00  0.00     0.158 C 
ENDROOT
BRANCH   4  11
ATOM     11  C   LIG d   1      26.796   2.781  14.804  0.00  0.00     0.171 C 
BRANCH  11  12
ATOM     12  N   LIG d   1      25.523   2.145  14.467  0.00  0.00    -0.286 NA
ATOM     13  H   LIG d   1      25.302   2.339  13.488  0.00  0.00     0.128 HD
BRANCH  12  14
ATOM     14  C   LIG d   1      25.339   0.792  14.778  0.00  0.00     0.008 A 
ATOM     15  C   LIG d   1      25.972  -0.246  14.082  0.00  0.00     0.024 A 
ATOM     16  C   LIG d   1      25.825  -1.583  14.478  0.00  0.00     0.017 A 
ATOM     17  C   LIG d   1      25.059  -1.905  15.603  0.00  0.00     0.009 A 
ATOM     18  C   LIG d   1      24.468  -0.875  16.337  0.00  0.00     0.017 A 
ATOM     19  C   LIG d   1      24.618   0.456  15.932  0.00  0.00     0.024 A 
BRANCH  17  20
ATOM     20  C   LIG d   1      24.872  -3.318  16.014  0.00  0.00     0.123 C 
ATOM     21  N   LIG d   1      24.205  -4.131  15.223  0.00  0.00    -0.284 NA
ATOM     22  H   LIG d   1      24.110  -5.095  15.564  0.00  0.00     0.188 HD
BRANCH  20  23
ATOM     23  N   LIG d   1      25.351  -3.787  17.100  0.00  0.00    -0.384 N 
ATOM     24  H   LIG d   1      25.185  -4.768  17.291  0.00  0.00     0.157 HD
ATOM     25  H   LIG d   1      25.916  -3.226  17.723  0.00  0.00     0.157 HD
ENDBRANCH  20  23
ENDBRANCH  17  20
ENDBRANCH  12  14
ENDBRANCH  11  12
ENDBRANCH   4  11
BRANCH   6  26
ATOM     26  C   LIG d   1      25.552   6.689  20.984  0.00  0.00     0.259 C 
ATOM     27  O   LIG d   1      26.466   6.608  21.812  0.00  0.00    -0.267 OA
ATOM     28  N   LIG d   1      24.230   6.999  21.333  0.00  0.00    -0.298 N 
BRANCH  28  29
ATOM     29  C   LIG d   1      23.875   6.892  22.759  0.00  0.00     0.144 C 
BRANCH  29  30
ATOM     30  C   LIG d   1      23.114   5.614  23.094  0.00  0.00     0.133 C 
BRANCH  30  31
ATOM     31  C   LIG d   1      23.553   4.963  24.395  0.00  0.00     0.174 C 
ATOM     32  O   LIG d   1      24.558   4.204  24.301  0.00  0.00    -0.648 OA
ATOM     33  O   LIG d   1      22.887   5.273  25.422  0.00  0.00    -0.648 OA
ENDBRANCH  30  31
ENDBRANCH  29  30
ENDBRANCH  28  29
BRANCH  28  34
ATOM     34  C   LIG d   1      23.363   7.719  20.459  0.00  0.00     0.132 A 
ATOM     35  N   LIG d   1      23.490   9.069  20.399  0.00  0.00    -0.243 NA
ATOM     36  C   LIG d   1      22.662   9.756  19.582  0.00  0.00     0.119 A 
ATOM     37  C   LIG d   1      21.683   9.172  18.803  0.00  0.00     0.019 A 
ATOM     38  C   LIG d   1      21.552   7.794  18.864  0.00  0.00     0.005 A 
ATOM     39  C   LIG d   1      22.397   7.063  19.699  0.00  0.00     0.051 A 
ENDBRANCH  28  34
ENDBRANCH   6  26
TORSDOF 10
ENDMDL
MODEL 8
REMARK minimizedAffinity -5.51539755REMARK CNNscore 0.27120313REMARK CNNaffinity 4.87468386REMARK  10 active torsions:
REMARK  status: ('A' for Active; 'I' for Inactive)
REMARK       I    between atoms: N_6  and  C_20 
REMARK    1  A    between atoms: N_6  and  C_21 
REMARK    2  A    between atoms: N_6  and  C_24 
REMARK    3  A    between atoms: N_7  and  C_14 
REMARK    4  A    between atoms: N_7  and  C_22 
REMARK    5  A    between atoms: N_9  and  C_35 
REMARK    6  A    between atoms: C_12  and  C_14 
REMARK    7  A    between atoms: C_15  and  C_20 
REMARK    8  A    between atoms: C_21  and  C_23 
REMARK    9  A    between atoms: C_23  and  C_31 
REMARK   10  A    between atoms: C_30  and  C_35 
ROOT
ATOM      1  N   LIG d   1      22.815  13.219   7.912  0.00  0.00    -0.337 N 
ATOM      2  N   LIG d   1      22.813  14.668   9.590  0.00  0.00    -0.232 NA
ATOM      3  C   LIG d   1      22.706  12.459   9.053  0.00  0.00     0.064 A 
ATOM      4  C   LIG d   1      22.933  14.541   8.282  0.00  0.00     0.120 A 
ATOM      5  C   LIG d   1      22.668  13.395  10.084  0.00  0.00     0.086 A 
ATOM      6  C   LIG d   1      22.426  11.589  11.670  0.00  0.00     0.035 A 
ATOM      7  C   LIG d   1      22.493  12.968  11.409  0.00  0.00     0.051 A 
ATOM      8  C   LIG d   1      22.614  11.081   9.282  0.00  0.00     0.033 A 
ATOM      9  C   LIG d   1      22.478  10.668  10.612  0.00  0.00     0.019 A 
ATOM     10  C   LIG d   1      22.774  12.725   6.557  0.00  0.00     0.158 C 
ENDROOT
BRANCH   4  11
ATOM     11  C   LIG d   1      23.140  15.676   7.321  0.00  0.00     0.171 C 
BRANCH  11  12
ATOM     12  N   LIG d   1      21.919  16.440   7.076  0.00  0.00    -0.286 NA
ATOM     13  H   LIG d   1      21.581  16.824   7.961  0.00  0.00     0.128 HD
BRANCH  12  14
ATOM     14  C   LIG d   1      21.916  17.406   6.062  0.00  0.00     0.008 A 
ATOM     15  C   LIG d   1      21.586  18.749   6.285  0.00  0.00     0.024 A 
ATOM     16  C   LIG d   1      21.676  19.701   5.260  0.00  0.00     0.017 A 
ATOM     17  C   LIG d   1      22.128  19.329   3.990  0.00  0.00     0.009 A 
ATOM     18  C   LIG d   1      22.513  18.005   3.770  0.00  0.00     0.017 A 
ATOM     19  C   LIG d   1      22.416  17.062   4.799  0.00  0.00     0.024 A 
BRANCH  17  20
ATOM     20  C   LIG d   1      22.200  20.321   2.890  0.00  0.00     0.123 C 
ATOM     21  N   LIG d   1      22.253  21.603   3.188  0.00  0.00    -0.284 NA
ATOM     22  H   LIG d   1      22.301  22.238   2.382  0.00  0.00     0.188 HD
BRANCH  20  23
ATOM     23  N   LIG d   1      22.233  19.983   1.661  0.00  0.00    -0.384 N 
ATOM     24  H   LIG d   1      22.296  20.731   0.978  0.00  0.00     0.157 HD
ATOM     25  H   LIG d   1      22.248  19.015   1.370  0.00  0.00     0.157 HD
ENDBRANCH  20  23
ENDBRANCH  17  20
ENDBRANCH  12  14
ENDBRANCH  11  12
ENDBRANCH   4  11
BRANCH   6  26
ATOM     26  C   LIG d   1      22.176  11.057  13.043  0.00  0.00     0.259 C 
ATOM     27  O   LIG d   1      21.050  10.593  13.252  0.00  0.00    -0.267 OA
ATOM     28  N   LIG d   1      23.146  11.190  14.048  0.00  0.00    -0.298 N 
BRANCH  28  29
ATOM     29  C   LIG d   1      22.681  11.082  15.442  0.00  0.00     0.144 C 
BRANCH  29  30
ATOM     30  C   LIG d   1      22.657  12.420  16.171  0.00  0.00     0.133 C 
BRANCH  30  31
ATOM     31  C   LIG d   1      22.977  12.316  17.653  0.00  0.00     0.174 C 
ATOM     32  O   LIG d   1      24.206  12.233  17.930  0.00  0.00    -0.648 OA
ATOM     33  O   LIG d   1      21.988  12.353  18.438  0.00  0.00    -0.648 OA
ENDBRANCH  30  31
ENDBRANCH  29  30
ENDBRANCH  28  29
BRANCH  28  34
ATOM     34  C   LIG d   1      24.542  11.073  13.776  0.00  0.00     0.132 A 
ATOM     35  N   LIG d   1      25.027   9.853  13.432  0.00  0.00    -0.243 NA
ATOM     36  C   LIG d   1      26.351   9.736  13.186  0.00  0.00     0.119 A 
ATOM     37  C   LIG d   1      27.249  10.782  13.269  0.00  0.00     0.019 A 
ATOM     38  C   LIG d   1      26.754  12.027  13.621  0.00  0.00     0.005 A 
ATOM     39  C   LIG d   1      25.391  12.173  13.877  0.00  0.00     0.051 A 
ENDBRANCH  28  34
ENDBRANCH   6  26
TORSDOF 10
ENDMDL
MODEL 9
REMARK minimizedAffinity -6.92642689REMARK CNNscore 0.26633662REMARK CNNaffinity 5.66137791REMARK  10 active torsions:
REMARK  status: ('A' for Active; 'I' for Inactive)
REMARK       I    between atoms: N_6  and  C_20 
REMARK    1  A    between atoms: N_6  and  C_21 
REMARK    2  A    between atoms: N_6  and  C_24 
REMARK    3  A    between atoms: N_7  and  C_14 
REMARK    4  A    between atoms: N_7  and  C_22 
REMARK    5  A    between atoms: N_9  and  C_35 
REMARK    6  A    between atoms: C_12  and  C_14 
REMARK    7  A    between atoms: C_15  and  C_20 
REMARK    8  A    between atoms: C_21  and  C_23 
REMARK    9  A    between atoms: C_23  and  C_31 
REMARK   10  A    between atoms: C_30  and  C_35 
ROOT
ATOM      1  N   LIG d   1      21.150  -1.600  -3.159  0.00  0.00    -0.337 N 
ATOM      2  N   LIG d   1      19.321  -0.390  -2.830  0.00  0.00    -0.232 NA
ATOM      3  C   LIG d   1      20.101  -2.485  -3.256  0.00  0.00     0.064 A 
ATOM      4  C   LIG d   1      20.640  -0.359  -2.847  0.00  0.00     0.120 A 
ATOM      5  C   LIG d   1      18.969  -1.693  -3.084  0.00  0.00     0.086 A 
ATOM      6  C   LIG d   1      17.591  -3.651  -3.400  0.00  0.00     0.035 A 
ATOM      7  C   LIG d   1      17.693  -2.266  -3.188  0.00  0.00     0.051 A 
ATOM      8  C   LIG d   1      20.029  -3.862  -3.495  0.00  0.00     0.033 A 
ATOM      9  C   LIG d   1      18.751  -4.427  -3.559  0.00  0.00     0.019 A 
ATOM     10  C   LIG d   1      22.541  -1.906  -3.384  0.00  0.00     0.158 C 
ENDROOT
BRANCH   4  11
ATOM     11  C   LIG d   1      21.476   0.862  -2.590  0.00  0.00     0.171 C 
BRANCH  11  12
ATOM     12  N   LIG d   1      21.535   1.761  -3.741  0.00  0.00    -0.286 NA
ATOM     13  H   LIG d   1      21.236   1.253  -4.577  0.00  0.00     0.128 HD
BRANCH  12  14
ATOM     14  C   LIG d   1      20.917   3.015  -3.654  0.00  0.00     0.008 A 
ATOM     15  C   LIG d   1      21.501   4.192  -4.138  0.00  0.00     0.024 A 
ATOM     16  C   LIG d   1      20.814   5.413  -4.106  0.00  0.00     0.017 A 
ATOM     17  C   LIG d   1      19.507   5.474  -3.610  0.00  0.00     0.009 A 
ATOM     18  C   LIG d   1      18.893   4.298  -3.175  0.00  0.00     0.017 A 
ATOM     19  C   LIG d   1      19.589   3.084  -3.209  0.00  0.00     0.024 A 
BRANCH  17  20
ATOM     20  C   LIG d   1      18.781   6.765  -3.544  0.00  0.00     0.123 C 
ATOM     21  N   LIG d   1      19.339   7.781  -2.920  0.00  0.00    -0.284 NA
ATOM     22  H   LIG d   1      18.786   8.646  -2.910  0.00  0.00     0.188 HD
BRANCH  20  23
ATOM     23  N   LIG d   1      17.640   6.940  -4.085  0.00  0.00    -0.384 N 
ATOM     24  H   LIG d   1      17.225   7.861  -4.001  0.00  0.00     0.157 HD
ATOM     25  H   LIG d   1      17.183   6.215  -4.622  0.00  0.00     0.157 HD
ENDBRANCH  20  23
ENDBRANCH  17  20
ENDBRANCH  12  14
ENDBRANCH  11  12
ENDBRANCH   4  11
BRANCH   6  26
ATOM     26  C   LIG d   1      16.272  -4.327  -3.587  0.00  0.00     0.259 C 
ATOM     27  O   LIG d   1      15.783  -4.855  -2.583  0.00  0.00    -0.267 OA
ATOM     28  N   LIG d   1      15.698  -4.433  -4.863  0.00  0.00    -0.298 N 
BRANCH  28  29
ATOM     29  C   LIG d   1      14.678  -5.478  -5.050  0.00  0.00     0.144 C 
BRANCH  29  30
ATOM     30  C   LIG d   1      15.251  -6.890  -5.013  0.00  0.00     0.133 C 
BRANCH  30  31
ATOM     31  C   LIG d   1      16.566  -7.037  -5.762  0.00  0.00     0.174 C 
ATOM     32  O   LIG d   1      16.499  -6.827  -7.005  0.00  0.00    -0.648 OA
ATOM     33  O   LIG d   1      17.576  -7.321  -5.059  0.00  0.00    -0.648 OA
ENDBRANCH  30  31
ENDBRANCH  29  30
ENDBRANCH  28  29
BRANCH  28  34
ATOM     34  C   LIG d   1      15.802  -3.390  -5.831  0.00  0.00     0.132 A 
ATOM     35  N   LIG d   1      16.730  -3.518  -6.813  0.00  0.00    -0.243 NA
ATOM     36  C   LIG d   1      16.840  -2.527  -7.726  0.00  0.00     0.119 A 
ATOM     37  C   LIG d   1      16.069  -1.381  -7.720  0.00  0.00     0.019 A 
ATOM     38  C   LIG d   1      15.122  -1.249  -6.717  0.00  0.00     0.005 A 
ATOM     39  C   LIG d   1      14.989  -2.260  -5.765  0.00  0.00     0.051 A 
ENDBRANCH  28  34
ENDBRANCH   6  26
TORSDOF 10
ENDMDL
