REMARK  8 active torsions:
REMARK  status: ('A' for Active; 'I' for Inactive)
REMARK    1  A    between atoms: S_1  and  N_7 
REMARK    2  A    between atoms: S_1  and  C_11 
REMARK    3  A    between atoms: O_4  and  C_22 
REMARK    4  A    between atoms: N_7  and  C_17 
REMARK    5  A    between atoms: N_8  and  N_10 
REMARK    6  A    between atoms: N_8  and  C_14 
REMARK    7  A    between atoms: N_10  and  C_18 
REMARK    8  A    between atoms: C_20  and  C_28 
ROOT
ATOM      1  C   LIG d   1       8.009  -9.570  20.140  0.00  0.00     0.075 A 
ATOM      2  C   LIG d   1       7.621  -8.312  20.597  0.00  0.00     0.027 A 
ATOM      3  C   LIG d   1       9.330  -9.996  20.270  0.00  0.00     0.027 A 
ATOM      4  C   LIG d   1       9.927  -7.846  21.279  0.00  0.00     0.079 A 
ATOM      5  C   LIG d   1       8.582  -7.464  21.155  0.00  0.00     0.035 A 
ATOM      6  C   LIG d   1      10.272  -9.128  20.827  0.00  0.00     0.035 A 
ENDROOT
BRANCH   4   7
ATOM      7  N   LIG d   1      10.915  -7.066  21.777  0.00  0.00    -0.150 NA
BRANCH   7   8
ATOM      8  N   LIG d   1      11.505  -7.523  23.059  0.00  0.00    -0.150 NA
BRANCH   8   9
ATOM      9  C   LIG d   1      11.057  -6.883  24.177  0.00  0.00     0.080 A 
ATOM     10  C   LIG d   1      10.232  -7.582  25.102  0.00  0.00     0.054 A 
ATOM     11  C   LIG d   1       9.715  -6.998  26.288  0.00  0.00     0.076 A 
ATOM     12  C   LIG d   1      10.043  -5.654  26.532  0.00  0.00     0.082 A 
ATOM     13  C   LIG d   1      10.838  -4.931  25.650  0.00  0.00     0.040 A 
ATOM     14  C   LIG d   1      11.333  -5.544  24.492  0.00  0.00     0.036 A 
BRANCH  11  15
ATOM     15  C   LIG d   1       8.846  -7.771  27.263  0.00  0.00     0.212 C 
ATOM     16  O   LIG d   1       8.774  -7.287  28.456  0.00  0.00    -0.644 OA
ATOM     17  O   LIG d   1       8.227  -8.824  26.900  0.00  0.00    -0.644 OA
ENDBRANCH  11  15
BRANCH  12  18
ATOM     18  O   LIG d   1       9.595  -4.989  27.655  0.00  0.00    -0.360 OA
ATOM     19  H   LIG d   1       9.225  -5.720  28.219  0.00  0.00     0.217 HD
ENDBRANCH  12  18
ENDBRANCH   8   9
ENDBRANCH   7   8
ENDBRANCH   4   7
BRANCH   1  20
ATOM     20  S   LIG d   1       6.831 -10.644  19.382  0.00  0.00     0.247 S 
ATOM     21  O   LIG d   1       5.592  -9.911  19.183  0.00  0.00    -0.205 OA
ATOM     22  O   LIG d   1       7.433 -11.342  18.261  0.00  0.00    -0.205 OA
BRANCH  20  23
ATOM     23  N   LIG d   1       6.485 -11.776  20.607  0.00  0.00    -0.165 NA
ATOM     24  H   LIG d   1       5.469 -11.840  20.682  0.00  0.00     0.147 HD
BRANCH  23  25
ATOM     25  C   LIG d   1       6.948 -11.425  21.895  0.00  0.00     0.116 C 
ATOM     26  N   LIG d   1       6.166 -10.489  22.453  0.00  0.00    -0.248 NA
ATOM     27  C   LIG d   1       6.592  -9.986  23.632  0.00  0.00     0.118 C 
ATOM     28  C   LIG d   1       7.696 -10.468  24.319  0.00  0.00     0.019 C 
ATOM     29  C   LIG d   1       8.421 -11.513  23.755  0.00  0.00     0.005 C 
ATOM     30  C   LIG d   1       8.042 -12.004  22.510  0.00  0.00     0.045 C 
ENDBRANCH  23  25
ENDBRANCH  20  23
ENDBRANCH   1  20
TORSDOF 8
