MODEL 1
REMARK VINA RESULT:      -7.4      0.000      0.000
REMARK  15 active torsions:
REMARK  status: ('A' for Active; 'I' for Inactive)
REMARK    1  A    between atoms: O_2  and  C_21 
REMARK    2  A    between atoms: O_2  and  C_25 
REMARK    3  A    between atoms: O_4  and  C_17 
REMARK    4  A    between atoms: O_5  and  C_24 
REMARK    5  A    between atoms: O_5  and  C_28 
REMARK    6  A    between atoms: O_6  and  C_18 
REMARK    7  A    between atoms: O_7  and  C_19 
REMARK    8  A    between atoms: O_8  and  C_20 
REMARK    9  A    between atoms: O_9  and  C_22 
REMARK   10  A    between atoms: O_10  and  C_23 
REMARK   11  A    between atoms: O_12  and  C_35 
REMARK   12  A    between atoms: O_14  and  C_42 
REMARK   13  A    between atoms: O_15  and  C_40 
REMARK   14  A    between atoms: C_16  and  C_25 
REMARK   15  A    between atoms: C_33  and  C_37 
ROOT
ATOM      1  O   UNK d   1       9.336  17.165   3.109  0.00  0.00    -0.348 OA
ATOM      2  C   UNK d   1       8.505  16.668   4.163  0.00  0.00     0.180 C 
ATOM      3  C   UNK d   1       8.770  15.165   4.351  0.00  0.00     0.180 C 
ATOM      4  C   UNK d   1       8.560  14.429   3.025  0.00  0.00     0.183 C 
ATOM      5  C   UNK d   1       9.383  15.065   1.900  0.00  0.00     0.205 C 
ATOM      6  C   UNK d   1       9.068  16.571   1.838  0.00  0.00     0.298 C 
ENDROOT
BRANCH   6   7
ATOM      7  O   UNK d   1       9.916  17.178   0.854  0.00  0.00    -0.318 OA
BRANCH   7   8
ATOM      8  C   UNK d   1       9.709  18.500   0.569  0.00  0.00     0.077 A 
ATOM      9  C   UNK d   1      10.622  19.536   0.749  0.00  0.00     0.074 A 
ATOM     10  C   UNK d   1      10.247  20.862   0.501  0.00  0.00     0.089 A 
ATOM     11  O   UNK d   1      11.201  21.789   0.819  0.00  0.00    -0.340 OA
ATOM     12  C   UNK d   1       8.979  21.162  -0.000  0.00  0.00     0.076 A 
ATOM     13  C   UNK d   1      10.746  23.135   0.999  0.00  0.00     0.169 C 
ATOM     14  C   UNK d   1       9.762  23.579  -0.070  0.00  0.00     0.121 C 
ATOM     15  C   UNK d   1       8.649  22.589  -0.248  0.00  0.00     0.167 C 
ATOM     16  O   UNK d   1       7.547  22.962  -0.636  0.00  0.00    -0.292 OA
ATOM     17  C   UNK d   1       8.076  20.115  -0.218  0.00  0.00     0.085 A 
ATOM     18  C   UNK d   1       8.438  18.796   0.075  0.00  0.00     0.074 A 
BRANCH  13  19
ATOM     19  C   UNK d   1      10.333  23.420   2.442  0.00  0.00    -0.026 A 
ATOM     20  C   UNK d   1      11.228  23.364   3.521  0.00  0.00     0.049 A 
ATOM     21  C   UNK d   1      10.798  23.647   4.822  0.00  0.00     0.099 A 
ATOM     22  C   UNK d   1       9.468  23.985   5.092  0.00  0.00     0.101 A 
ATOM     23  C   UNK d   1       8.570  24.038   4.026  0.00  0.00     0.040 A 
ATOM     24  C   UNK d   1       8.998  23.759   2.720  0.00  0.00     0.012 A 
BRANCH  21  25
ATOM     25  O   UNK d   1      11.696  23.594   5.857  0.00  0.00    -0.358 OA
ATOM     26  H   UNK d   1      12.050  24.481   6.018  0.00  0.00     0.217 HD
ENDBRANCH  21  25
BRANCH  22  27
ATOM     27  O   UNK d   1       9.160  24.243   6.400  0.00  0.00    -0.353 OA
ATOM     28  C   UNK d   1       8.197  23.408   7.025  0.00  0.00     0.210 C 
ENDBRANCH  22  27
ENDBRANCH  13  19
BRANCH  17  29
ATOM     29  O   UNK d   1       6.822  20.356  -0.702  0.00  0.00    -0.360 OA
ATOM     30  H   UNK d   1       6.458  19.556  -1.115  0.00  0.00     0.217 HD
ENDBRANCH  17  29
ENDBRANCH   7   8
ENDBRANCH   6   7
BRANCH   5  31
ATOM     31  O   UNK d   1       9.054  14.401   0.670  0.00  0.00    -0.388 OA
ATOM     32  H   UNK d   1       9.013  13.450   0.891  0.00  0.00     0.210 HD
ENDBRANCH   5  31
BRANCH   2  33
ATOM     33  C   UNK d   1       8.825  17.437   5.459  0.00  0.00     0.205 C 
BRANCH  33  34
ATOM     34  O   UNK d   1       9.959  16.898   6.150  0.00  0.00    -0.356 OA
BRANCH  34  35
ATOM     35  C   UNK d   1      11.015  17.844   6.357  0.00  0.00     0.291 C 
ATOM     36  O   UNK d   1      10.486  19.001   7.022  0.00  0.00    -0.351 OA
ATOM     37  C   UNK d   1      11.176  20.233   6.798  0.00  0.00     0.152 C 
ATOM     38  C   UNK d   1      12.661  20.010   6.492  0.00  0.00     0.178 C 
ATOM     39  C   UNK d   1      10.955  21.096   8.036  0.00  0.00     0.042 C 
ATOM     40  C   UNK d   1      12.791  19.213   5.185  0.00  0.00     0.183 C 
ATOM     41  C   UNK d   1      11.653  18.195   4.994  0.00  0.00     0.204 C 
BRANCH  38  42
ATOM     42  O   UNK d   1      13.400  21.224   6.351  0.00  0.00    -0.390 OA
ATOM     43  H   UNK d   1      13.969  21.136   5.566  0.00  0.00     0.210 HD
ENDBRANCH  38  42
BRANCH  40  44
ATOM     44  O   UNK d   1      14.064  18.531   5.185  0.00  0.00    -0.390 OA
ATOM     45  H   UNK d   1      14.253  18.336   4.245  0.00  0.00     0.210 HD
ENDBRANCH  40  44
BRANCH  41  46
ATOM     46  O   UNK d   1      12.150  17.046   4.294  0.00  0.00    -0.388 OA
ATOM     47  H   UNK d   1      13.020  16.851   4.702  0.00  0.00     0.210 HD
ENDBRANCH  41  46
ENDBRANCH  34  35
ENDBRANCH  33  34
ENDBRANCH   2  33
BRANCH   4  48
ATOM     48  O   UNK d   1       8.936  13.048   3.159  0.00  0.00    -0.390 OA
ATOM     49  H   UNK d   1       9.502  12.844   2.392  0.00  0.00     0.210 HD
ENDBRANCH   4  48
BRANCH   3  50
ATOM     50  O   UNK d   1       7.901  14.604   5.337  0.00  0.00    -0.390 OA
ATOM     51  H   UNK d   1       7.019  14.529   4.930  0.00  0.00     0.210 HD
ENDBRANCH   3  50
TORSDOF 15
ENDMDL
MODEL 2
REMARK VINA RESULT:      -7.3      1.596      2.377
REMARK  15 active torsions:
REMARK  status: ('A' for Active; 'I' for Inactive)
REMARK    1  A    between atoms: O_2  and  C_21 
REMARK    2  A    between atoms: O_2  and  C_25 
REMARK    3  A    between atoms: O_4  and  C_17 
REMARK    4  A    between atoms: O_5  and  C_24 
REMARK    5  A    between atoms: O_5  and  C_28 
REMARK    6  A    between atoms: O_6  and  C_18 
REMARK    7  A    between atoms: O_7  and  C_19 
REMARK    8  A    between atoms: O_8  and  C_20 
REMARK    9  A    between atoms: O_9  and  C_22 
REMARK   10  A    between atoms: O_10  and  C_23 
REMARK   11  A    between atoms: O_12  and  C_35 
REMARK   12  A    between atoms: O_14  and  C_42 
REMARK   13  A    between atoms: O_15  and  C_40 
REMARK   14  A    between atoms: C_16  and  C_25 
REMARK   15  A    between atoms: C_33  and  C_37 
ROOT
ATOM      1  O   UNK d   1      10.216  16.666   3.449  0.00  0.00    -0.348 OA
ATOM      2  C   UNK d   1       9.958  16.059   4.719  0.00  0.00     0.180 C 
ATOM      3  C   UNK d   1      10.161  14.539   4.604  0.00  0.00     0.180 C 
ATOM      4  C   UNK d   1       9.281  13.980   3.484  0.00  0.00     0.183 C 
ATOM      5  C   UNK d   1       9.508  14.732   2.169  0.00  0.00     0.205 C 
ATOM      6  C   UNK d   1       9.323  16.241   2.417  0.00  0.00     0.298 C 
ENDROOT
BRANCH   6   7
ATOM      7  O   UNK d   1       9.639  16.947   1.210  0.00  0.00    -0.318 OA
BRANCH   7   8
ATOM      8  C   UNK d   1       9.123  18.206   1.060  0.00  0.00     0.077 A 
ATOM      9  C   UNK d   1       9.717  19.267   0.382  0.00  0.00     0.074 A 
ATOM     10  C   UNK d   1       9.120  20.533   0.384  0.00  0.00     0.089 A 
ATOM     11  O   UNK d   1       9.859  21.508  -0.228  0.00  0.00    -0.340 OA
ATOM     12  C   UNK d   1       7.885  20.737   1.001  0.00  0.00     0.076 A 
ATOM     13  C   UNK d   1       9.529  22.861   0.107  0.00  0.00     0.169 C 
ATOM     14  C   UNK d   1       8.033  23.121   0.130  0.00  0.00     0.121 C 
ATOM     15  C   UNK d   1       7.304  22.103   0.959  0.00  0.00     0.167 C 
ATOM     16  O   UNK d   1       6.251  22.399   1.515  0.00  0.00    -0.292 OA
ATOM     17  C   UNK d   1       7.270  19.660   1.649  0.00  0.00     0.085 A 
ATOM     18  C   UNK d   1       7.891  18.407   1.685  0.00  0.00     0.074 A 
BRANCH  13  19
ATOM     19  C   UNK d   1      10.311  23.367   1.318  0.00  0.00    -0.026 A 
ATOM     20  C   UNK d   1       9.972  24.536   2.015  0.00  0.00     0.049 A 
ATOM     21  C   UNK d   1      10.716  24.946   3.127  0.00  0.00     0.099 A 
ATOM     22  C   UNK d   1      11.822  24.214   3.573  0.00  0.00     0.101 A 
ATOM     23  C   UNK d   1      12.170  23.054   2.882  0.00  0.00     0.040 A 
ATOM     24  C   UNK d   1      11.423  22.637   1.770  0.00  0.00     0.012 A 
BRANCH  21  25
ATOM     25  O   UNK d   1      10.358  26.087   3.797  0.00  0.00    -0.358 OA
ATOM     26  H   UNK d   1      10.044  25.852   4.683  0.00  0.00     0.217 HD
ENDBRANCH  21  25
BRANCH  22  27
ATOM     27  O   UNK d   1      12.475  24.708   4.671  0.00  0.00    -0.353 OA
ATOM     28  C   UNK d   1      13.790  25.207   4.482  0.00  0.00     0.210 C 
ENDBRANCH  22  27
ENDBRANCH  13  19
BRANCH  17  29
ATOM     29  O   UNK d   1       6.064  19.809   2.272  0.00  0.00    -0.360 OA
ATOM     30  H   UNK d   1       6.060  19.339   3.121  0.00  0.00     0.217 HD
ENDBRANCH  17  29
ENDBRANCH   7   8
ENDBRANCH   6   7
BRANCH   5  31
ATOM     31  O   UNK d   1       8.577  14.234   1.197  0.00  0.00    -0.388 OA
ATOM     32  H   UNK d   1       8.907  13.348   0.952  0.00  0.00     0.210 HD
ENDBRANCH   5  31
BRANCH   2  33
ATOM     33  C   UNK d   1      10.923  16.654   5.763  0.00  0.00     0.205 C 
BRANCH  33  34
ATOM     34  O   UNK d   1      11.744  17.695   5.221  0.00  0.00    -0.356 OA
BRANCH  34  35
ATOM     35  C   UNK d   1      11.574  18.963   5.865  0.00  0.00     0.291 C 
ATOM     36  O   UNK d   1      10.507  19.677   5.222  0.00  0.00    -0.351 OA
ATOM     37  C   UNK d   1      10.562  21.103   5.296  0.00  0.00     0.152 C 
ATOM     38  C   UNK d   1      11.294  21.583   6.554  0.00  0.00     0.178 C 
ATOM     39  C   UNK d   1       9.124  21.607   5.226  0.00  0.00     0.042 C 
ATOM     40  C   UNK d   1      12.755  21.109   6.497  0.00  0.00     0.183 C 
ATOM     41  C   UNK d   1      12.908  19.739   5.814  0.00  0.00     0.204 C 
BRANCH  38  42
ATOM     42  O   UNK d   1      11.291  23.003   6.706  0.00  0.00    -0.390 OA
ATOM     43  H   UNK d   1      11.478  23.396   5.835  0.00  0.00     0.210 HD
ENDBRANCH  38  42
BRANCH  40  44
ATOM     44  O   UNK d   1      13.273  21.046   7.845  0.00  0.00    -0.390 OA
ATOM     45  H   UNK d   1      13.000  21.886   8.265  0.00  0.00     0.210 HD
ENDBRANCH  40  44
BRANCH  41  46
ATOM     46  O   UNK d   1      13.998  19.023   6.414  0.00  0.00    -0.388 OA
ATOM     47  H   UNK d   1      14.658  19.709   6.651  0.00  0.00     0.210 HD
ENDBRANCH  41  46
ENDBRANCH  34  35
ENDBRANCH  33  34
ENDBRANCH   2  33
BRANCH   4  48
ATOM     48  O   UNK d   1       9.564  12.584   3.281  0.00  0.00    -0.390 OA
ATOM     49  H   UNK d   1       8.979  12.290   2.559  0.00  0.00     0.210 HD
ENDBRANCH   4  48
BRANCH   3  50
ATOM     50  O   UNK d   1       9.832  13.878   5.828  0.00  0.00    -0.390 OA
ATOM     51  H   UNK d   1      10.195  14.421   6.551  0.00  0.00     0.210 HD
ENDBRANCH   3  50
TORSDOF 15
ENDMDL
MODEL 3
REMARK VINA RESULT:      -7.2     30.592     34.457
REMARK  15 active torsions:
REMARK  status: ('A' for Active; 'I' for Inactive)
REMARK    1  A    between atoms: O_2  and  C_21 
REMARK    2  A    between atoms: O_2  and  C_25 
REMARK    3  A    between atoms: O_4  and  C_17 
REMARK    4  A    between atoms: O_5  and  C_24 
REMARK    5  A    between atoms: O_5  and  C_28 
REMARK    6  A    between atoms: O_6  and  C_18 
REMARK    7  A    between atoms: O_7  and  C_19 
REMARK    8  A    between atoms: O_8  and  C_20 
REMARK    9  A    between atoms: O_9  and  C_22 
REMARK   10  A    between atoms: O_10  and  C_23 
REMARK   11  A    between atoms: O_12  and  C_35 
REMARK   12  A    between atoms: O_14  and  C_42 
REMARK   13  A    between atoms: O_15  and  C_40 
REMARK   14  A    between atoms: C_16  and  C_25 
REMARK   15  A    between atoms: C_33  and  C_37 
ROOT
ATOM      1  O   UNK d   1      25.055  -3.019  19.542  0.00  0.00    -0.348 OA
ATOM      2  C   UNK d   1      24.582  -4.053  18.672  0.00  0.00     0.180 C 
ATOM      3  C   UNK d   1      24.385  -3.475  17.261  0.00  0.00     0.180 C 
ATOM      4  C   UNK d   1      23.447  -2.267  17.319  0.00  0.00     0.183 C 
ATOM      5  C   UNK d   1      23.931  -1.237  18.344  0.00  0.00     0.205 C 
ATOM      6  C   UNK d   1      24.136  -1.937  19.700  0.00  0.00     0.298 C 
ENDROOT
BRANCH   6   7
ATOM      7  O   UNK d   1      24.687  -0.992  20.627  0.00  0.00    -0.318 OA
BRANCH   7   8
ATOM      8  C   UNK d   1      24.199  -1.001  21.906  0.00  0.00     0.077 A 
ATOM      9  C   UNK d   1      24.946  -0.886  23.076  0.00  0.00     0.074 A 
ATOM     10  C   UNK d   1      24.327  -1.004  24.326  0.00  0.00     0.089 A 
ATOM     11  O   UNK d   1      25.188  -0.978  25.388  0.00  0.00    -0.340 OA
ATOM     12  C   UNK d   1      22.944  -1.164  24.424  0.00  0.00     0.076 A 
ATOM     13  C   UNK d   1      24.694  -1.513  26.621  0.00  0.00     0.169 C 
ATOM     14  C   UNK d   1      23.280  -1.062  26.941  0.00  0.00     0.121 C 
ATOM     15  C   UNK d   1      22.351  -1.275  25.781  0.00  0.00     0.167 C 
ATOM     16  O   UNK d   1      21.156  -1.470  25.974  0.00  0.00    -0.292 OA
ATOM     17  C   UNK d   1      22.190  -1.240  23.247  0.00  0.00     0.085 A 
ATOM     18  C   UNK d   1      22.817  -1.169  21.999  0.00  0.00     0.074 A 
BRANCH  13  19
ATOM     19  C   UNK d   1      24.960  -3.012  26.752  0.00  0.00    -0.026 A 
ATOM     20  C   UNK d   1      24.170  -3.988  26.126  0.00  0.00     0.049 A 
ATOM     21  C   UNK d   1      24.466  -5.348  26.271  0.00  0.00     0.099 A 
ATOM     22  C   UNK d   1      25.548  -5.779  27.046  0.00  0.00     0.101 A 
ATOM     23  C   UNK d   1      26.335  -4.816  27.677  0.00  0.00     0.040 A 
ATOM     24  C   UNK d   1      26.044  -3.452  27.530  0.00  0.00     0.012 A 
BRANCH  21  25
ATOM     25  O   UNK d   1      23.684  -6.281  25.640  0.00  0.00    -0.358 OA
ATOM     26  H   UNK d   1      22.963  -6.544  26.231  0.00  0.00     0.217 HD
ENDBRANCH  21  25
BRANCH  22  27
ATOM     27  O   UNK d   1      25.745  -7.132  27.115  0.00  0.00    -0.353 OA
ATOM     28  C   UNK d   1      26.918  -7.591  27.769  0.00  0.00     0.210 C 
ENDBRANCH  22  27
ENDBRANCH  13  19
BRANCH  17  29
ATOM     29  O   UNK d   1      20.835  -1.401  23.289  0.00  0.00    -0.360 OA
ATOM     30  H   UNK d   1      20.399  -0.561  23.502  0.00  0.00     0.217 HD
ENDBRANCH  17  29
ENDBRANCH   7   8
ENDBRANCH   6   7
BRANCH   5  31
ATOM     31  O   UNK d   1      22.952  -0.189  18.428  0.00  0.00    -0.388 OA
ATOM     32  H   UNK d   1      22.113  -0.637  18.649  0.00  0.00     0.210 HD
ENDBRANCH   5  31
BRANCH   2  33
ATOM     33  C   UNK d   1      25.615  -5.197  18.646  0.00  0.00     0.205 C 
BRANCH  33  34
ATOM     34  O   UNK d   1      25.158  -6.364  19.341  0.00  0.00    -0.356 OA
BRANCH  34  35
ATOM     35  C   UNK d   1      25.478  -6.369  20.738  0.00  0.00     0.291 C 
ATOM     36  O   UNK d   1      26.706  -5.655  20.941  0.00  0.00    -0.351 OA
ATOM     37  C   UNK d   1      27.475  -6.029  22.086  0.00  0.00     0.152 C 
ATOM     38  C   UNK d   1      26.594  -6.580  23.212  0.00  0.00     0.178 C 
ATOM     39  C   UNK d   1      28.267  -4.796  22.510  0.00  0.00     0.042 C 
ATOM     40  C   UNK d   1      25.908  -7.868  22.730  0.00  0.00     0.183 C 
ATOM     41  C   UNK d   1      25.564  -7.830  21.231  0.00  0.00     0.204 C 
BRANCH  38  42
ATOM     42  O   UNK d   1      27.319  -6.881  24.405  0.00  0.00    -0.390 OA
ATOM     43  H   UNK d   1      27.670  -7.785  24.321  0.00  0.00     0.210 HD
ENDBRANCH  38  42
BRANCH  40  44
ATOM     44  O   UNK d   1      24.706  -8.069  23.505  0.00  0.00    -0.390 OA
ATOM     45  H   UNK d   1      24.578  -7.237  24.004  0.00  0.00     0.210 HD
ENDBRANCH  40  44
BRANCH  41  46
ATOM     46  O   UNK d   1      24.358  -8.574  20.998  0.00  0.00    -0.388 OA
ATOM     47  H   UNK d   1      24.258  -8.604  20.023  0.00  0.00     0.210 HD
ENDBRANCH  41  46
ENDBRANCH  34  35
ENDBRANCH  33  34
ENDBRANCH   2  33
BRANCH   4  48
ATOM     48  O   UNK d   1      23.364  -1.640  16.027  0.00  0.00    -0.390 OA
ATOM     49  H   UNK d   1      22.504  -1.906  15.651  0.00  0.00     0.210 HD
ENDBRANCH   4  48
BRANCH   3  50
ATOM     50  O   UNK d   1      23.832  -4.450  16.374  0.00  0.00    -0.390 OA
ATOM     51  H   UNK d   1      22.913  -4.181  16.192  0.00  0.00     0.210 HD
ENDBRANCH   3  50
TORSDOF 15
ENDMDL
MODEL 4
REMARK VINA RESULT:      -7.2      3.004      6.261
REMARK  15 active torsions:
REMARK  status: ('A' for Active; 'I' for Inactive)
REMARK    1  A    between atoms: O_2  and  C_21 
REMARK    2  A    between atoms: O_2  and  C_25 
REMARK    3  A    between atoms: O_4  and  C_17 
REMARK    4  A    between atoms: O_5  and  C_24 
REMARK    5  A    between atoms: O_5  and  C_28 
REMARK    6  A    between atoms: O_6  and  C_18 
REMARK    7  A    between atoms: O_7  and  C_19 
REMARK    8  A    between atoms: O_8  and  C_20 
REMARK    9  A    between atoms: O_9  and  C_22 
REMARK   10  A    between atoms: O_10  and  C_23 
REMARK   11  A    between atoms: O_12  and  C_35 
REMARK   12  A    between atoms: O_14  and  C_42 
REMARK   13  A    between atoms: O_15  and  C_40 
REMARK   14  A    between atoms: C_16  and  C_25 
REMARK   15  A    between atoms: C_33  and  C_37 
ROOT
ATOM      1  O   UNK d   1       8.737  16.747   2.815  0.00  0.00    -0.348 OA
ATOM      2  C   UNK d   1       8.949  15.380   2.448  0.00  0.00     0.180 C 
ATOM      3  C   UNK d   1       9.575  14.629   3.635  0.00  0.00     0.180 C 
ATOM      4  C   UNK d   1      10.859  15.336   4.079  0.00  0.00     0.183 C 
ATOM      5  C   UNK d   1      10.609  16.822   4.354  0.00  0.00     0.205 C 
ATOM      6  C   UNK d   1       9.941  17.454   3.118  0.00  0.00     0.298 C 
ENDROOT
BRANCH   6   7
ATOM      7  O   UNK d   1       9.616  18.818   3.419  0.00  0.00    -0.318 OA
BRANCH   7   8
ATOM      8  C   UNK d   1       8.794  19.479   2.547  0.00  0.00     0.077 A 
ATOM      9  C   UNK d   1       9.166  20.048   1.332  0.00  0.00     0.074 A 
ATOM     10  C   UNK d   1       8.239  20.779   0.578  0.00  0.00     0.089 A 
ATOM     11  O   UNK d   1       8.759  21.372  -0.538  0.00  0.00    -0.340 OA
ATOM     12  C   UNK d   1       6.910  20.887   0.994  0.00  0.00     0.076 A 
ATOM     13  C   UNK d   1       8.003  22.453  -1.096  0.00  0.00     0.169 C 
ATOM     14  C   UNK d   1       6.514  22.161  -1.169  0.00  0.00     0.121 C 
ATOM     15  C   UNK d   1       5.977  21.669   0.144  0.00  0.00     0.167 C 
ATOM     16  O   UNK d   1       4.806  21.868   0.446  0.00  0.00    -0.292 OA
ATOM     17  C   UNK d   1       6.530  20.281   2.197  0.00  0.00     0.085 A 
ATOM     18  C   UNK d   1       7.468  19.591   2.970  0.00  0.00     0.074 A 
BRANCH  13  19
ATOM     19  C   UNK d   1       8.387  23.803  -0.494  0.00  0.00    -0.026 A 
ATOM     20  C   UNK d   1       9.211  23.932   0.634  0.00  0.00     0.049 A 
ATOM     21  C   UNK d   1       9.541  25.195   1.137  0.00  0.00     0.099 A 
ATOM     22  C   UNK d   1       9.057  26.366   0.541  0.00  0.00     0.101 A 
ATOM     23  C   UNK d   1       8.233  26.247  -0.577  0.00  0.00     0.040 A 
ATOM     24  C   UNK d   1       7.904  24.982  -1.087  0.00  0.00     0.012 A 
BRANCH  21  25
ATOM     25  O   UNK d   1      10.356  25.294   2.235  0.00  0.00    -0.358 OA
ATOM     26  H   UNK d   1       9.978  25.934   2.856  0.00  0.00     0.217 HD
ENDBRANCH  21  25
BRANCH  22  27
ATOM     27  O   UNK d   1       9.447  27.546   1.116  0.00  0.00    -0.353 OA
ATOM     28  C   UNK d   1       8.475  28.264   1.861  0.00  0.00     0.210 C 
ENDBRANCH  22  27
ENDBRANCH  13  19
BRANCH  17  29
ATOM     29  O   UNK d   1       5.244  20.361   2.649  0.00  0.00    -0.360 OA
ATOM     30  H   UNK d   1       5.102  19.741   3.382  0.00  0.00     0.217 HD
ENDBRANCH  17  29
ENDBRANCH   7   8
ENDBRANCH   6   7
BRANCH   5  31
ATOM     31  O   UNK d   1      11.868  17.443   4.655  0.00  0.00    -0.388 OA
ATOM     32  H   UNK d   1      12.466  17.182   3.927  0.00  0.00     0.210 HD
ENDBRANCH   5  31
BRANCH   2  33
ATOM     33  C   UNK d   1       7.596  14.749   2.065  0.00  0.00     0.205 C 
BRANCH  33  34
ATOM     34  O   UNK d   1       7.741  13.435   1.514  0.00  0.00    -0.356 OA
BRANCH  34  35
ATOM     35  C   UNK d   1       6.782  12.490   2.006  0.00  0.00     0.291 C 
ATOM     36  O   UNK d   1       6.775  12.534   3.441  0.00  0.00    -0.351 OA
ATOM     37  C   UNK d   1       6.370  11.337   4.110  0.00  0.00     0.152 C 
ATOM     38  C   UNK d   1       5.401  10.507   3.260  0.00  0.00     0.178 C 
ATOM     39  C   UNK d   1       5.765  11.759   5.445  0.00  0.00     0.042 C 
ATOM     40  C   UNK d   1       6.120  10.049   1.982  0.00  0.00     0.183 C 
ATOM     41  C   UNK d   1       7.133  11.086   1.467  0.00  0.00     0.204 C 
BRANCH  38  42
ATOM     42  O   UNK d   1       4.906   9.348   3.933  0.00  0.00    -0.390 OA
ATOM     43  H   UNK d   1       5.639   8.968   4.450  0.00  0.00     0.210 HD
ENDBRANCH  38  42
BRANCH  40  44
ATOM     44  O   UNK d   1       5.129   9.784   0.965  0.00  0.00    -0.390 OA
ATOM     45  H   UNK d   1       5.636   9.645   0.140  0.00  0.00     0.210 HD
ENDBRANCH  40  44
BRANCH  41  46
ATOM     46  O   UNK d   1       7.188  11.032   0.034  0.00  0.00    -0.388 OA
ATOM     47  H   UNK d   1       6.265  11.176  -0.265  0.00  0.00     0.210 HD
ENDBRANCH  41  46
ENDBRANCH  34  35
ENDBRANCH  33  34
ENDBRANCH   2  33
BRANCH   4  48
ATOM     48  O   UNK d   1      11.377  14.719   5.270  0.00  0.00    -0.390 OA
ATOM     49  H   UNK d   1      12.318  14.532   5.093  0.00  0.00     0.210 HD
ENDBRANCH   4  48
BRANCH   3  50
ATOM     50  O   UNK d   1       9.885  13.278   3.288  0.00  0.00    -0.390 OA
ATOM     51  H   UNK d   1       9.853  12.758   4.112  0.00  0.00     0.210 HD
ENDBRANCH   3  50
TORSDOF 15
ENDMDL
MODEL 5
REMARK VINA RESULT:      -7.0     31.388     35.248
REMARK  15 active torsions:
REMARK  status: ('A' for Active; 'I' for Inactive)
REMARK    1  A    between atoms: O_2  and  C_21 
REMARK    2  A    between atoms: O_2  and  C_25 
REMARK    3  A    between atoms: O_4  and  C_17 
REMARK    4  A    between atoms: O_5  and  C_24 
REMARK    5  A    between atoms: O_5  and  C_28 
REMARK    6  A    between atoms: O_6  and  C_18 
REMARK    7  A    between atoms: O_7  and  C_19 
REMARK    8  A    between atoms: O_8  and  C_20 
REMARK    9  A    between atoms: O_9  and  C_22 
REMARK   10  A    between atoms: O_10  and  C_23 
REMARK   11  A    between atoms: O_12  and  C_35 
REMARK   12  A    between atoms: O_14  and  C_42 
REMARK   13  A    between atoms: O_15  and  C_40 
REMARK   14  A    between atoms: C_16  and  C_25 
REMARK   15  A    between atoms: C_33  and  C_37 
ROOT
ATOM      1  O   UNK d   1      25.930  -7.048  21.370  0.00  0.00    -0.348 OA
ATOM      2  C   UNK d   1      26.823  -6.830  20.272  0.00  0.00     0.180 C 
ATOM      3  C   UNK d   1      26.551  -7.881  19.183  0.00  0.00     0.180 C 
ATOM      4  C   UNK d   1      26.664  -9.288  19.777  0.00  0.00     0.183 C 
ATOM      5  C   UNK d   1      25.777  -9.441  21.016  0.00  0.00     0.205 C 
ATOM      6  C   UNK d   1      26.107  -8.313  22.011  0.00  0.00     0.298 C 
ENDROOT
BRANCH   6   7
ATOM      7  O   UNK d   1      25.202  -8.400  23.121  0.00  0.00    -0.318 OA
BRANCH   7   8
ATOM      8  C   UNK d   1      25.422  -7.565  24.182  0.00  0.00     0.077 A 
ATOM      9  C   UNK d   1      24.454  -7.056  25.045  0.00  0.00     0.074 A 
ATOM     10  C   UNK d   1      24.806  -6.134  26.039  0.00  0.00     0.089 A 
ATOM     11  O   UNK d   1      23.748  -5.634  26.747  0.00  0.00    -0.340 OA
ATOM     12  C   UNK d   1      26.139  -5.767  26.230  0.00  0.00     0.076 A 
ATOM     13  C   UNK d   1      23.977  -4.409  27.453  0.00  0.00     0.169 C 
ATOM     14  C   UNK d   1      25.302  -4.388  28.195  0.00  0.00     0.121 C 
ATOM     15  C   UNK d   1      26.444  -4.791  27.307  0.00  0.00     0.167 C 
ATOM     16  O   UNK d   1      27.573  -4.363  27.522  0.00  0.00    -0.292 OA
ATOM     17  C   UNK d   1      27.115  -6.310  25.386  0.00  0.00     0.085 A 
ATOM     18  C   UNK d   1      26.755  -7.194  24.365  0.00  0.00     0.074 A 
BRANCH  13  19
ATOM     19  C   UNK d   1      23.675  -3.180  26.597  0.00  0.00    -0.026 A 
ATOM     20  C   UNK d   1      22.757  -3.192  25.537  0.00  0.00     0.049 A 
ATOM     21  C   UNK d   1      22.510  -2.033  24.792  0.00  0.00     0.099 A 
ATOM     22  C   UNK d   1      23.172  -0.832  25.073  0.00  0.00     0.101 A 
ATOM     23  C   UNK d   1      24.090  -0.813  26.121  0.00  0.00     0.040 A 
ATOM     24  C   UNK d   1      24.337  -1.972  26.872  0.00  0.00     0.012 A 
BRANCH  21  25
ATOM     25  O   UNK d   1      21.600  -2.068  23.767  0.00  0.00    -0.358 OA
ATOM     26  H   UNK d   1      21.432  -2.990  23.522  0.00  0.00     0.217 HD
ENDBRANCH  21  25
BRANCH  22  27
ATOM     27  O   UNK d   1      22.850   0.238  24.282  0.00  0.00    -0.353 OA
ATOM     28  C   UNK d   1      22.234   1.354  24.907  0.00  0.00     0.210 C 
ENDBRANCH  22  27
ENDBRANCH  13  19
BRANCH  17  29
ATOM     29  O   UNK d   1      28.432  -5.979  25.529  0.00  0.00    -0.360 OA
ATOM     30  H   UNK d   1      28.548  -5.017  25.476  0.00  0.00     0.217 HD
ENDBRANCH  17  29
ENDBRANCH   7   8
ENDBRANCH   6   7
BRANCH   5  31
ATOM     31  O   UNK d   1      26.016 -10.738  21.584  0.00  0.00    -0.388 OA
ATOM     32  H   UNK d   1      26.558 -10.576  22.380  0.00  0.00     0.210 HD
ENDBRANCH   5  31
BRANCH   2  33
ATOM     33  C   UNK d   1      26.597  -5.410  19.718  0.00  0.00     0.205 C 
BRANCH  33  34
ATOM     34  O   UNK d   1      25.923  -4.558  20.651  0.00  0.00    -0.356 OA
BRANCH  34  35
ATOM     35  C   UNK d   1      24.922  -3.723  20.055  0.00  0.00     0.291 C 
ATOM     36  O   UNK d   1      25.435  -3.173  18.833  0.00  0.00    -0.351 OA
ATOM     37  C   UNK d   1      24.879  -1.924  18.416  0.00  0.00     0.152 C 
ATOM     38  C   UNK d   1      23.440  -1.745  18.913  0.00  0.00     0.178 C 
ATOM     39  C   UNK d   1      24.984  -1.878  16.895  0.00  0.00     0.042 C 
ATOM     40  C   UNK d   1      23.440  -1.711  20.450  0.00  0.00     0.183 C 
ATOM     41  C   UNK d   1      24.514  -2.626  21.063  0.00  0.00     0.204 C 
BRANCH  38  42
ATOM     42  O   UNK d   1      22.821  -0.547  18.441  0.00  0.00    -0.390 OA
ATOM     43  H   UNK d   1      21.917  -0.770  18.159  0.00  0.00     0.210 HD
ENDBRANCH  38  42
BRANCH  40  44
ATOM     44  O   UNK d   1      22.132  -2.106  20.920  0.00  0.00    -0.390 OA
ATOM     45  H   UNK d   1      21.498  -1.646  20.334  0.00  0.00     0.210 HD
ENDBRANCH  40  44
BRANCH  41  46
ATOM     46  O   UNK d   1      24.038  -3.156  22.309  0.00  0.00    -0.388 OA
ATOM     47  H   UNK d   1      23.160  -2.740  22.448  0.00  0.00     0.210 HD
ENDBRANCH  41  46
ENDBRANCH  34  35
ENDBRANCH  33  34
ENDBRANCH   2  33
BRANCH   4  48
ATOM     48  O   UNK d   1      26.281 -10.271  18.800  0.00  0.00    -0.390 OA
ATOM     49  H   UNK d   1      25.542  -9.882  18.297  0.00  0.00     0.210 HD
ENDBRANCH   4  48
BRANCH   3  50
ATOM     50  O   UNK d   1      27.476  -7.758  18.100  0.00  0.00    -0.390 OA
ATOM     51  H   UNK d   1      26.954  -7.570  17.299  0.00  0.00     0.210 HD
ENDBRANCH   3  50
TORSDOF 15
ENDMDL
MODEL 6
REMARK VINA RESULT:      -7.0      4.520      7.702
REMARK  15 active torsions:
REMARK  status: ('A' for Active; 'I' for Inactive)
REMARK    1  A    between atoms: O_2  and  C_21 
REMARK    2  A    between atoms: O_2  and  C_25 
REMARK    3  A    between atoms: O_4  and  C_17 
REMARK    4  A    between atoms: O_5  and  C_24 
REMARK    5  A    between atoms: O_5  and  C_28 
REMARK    6  A    between atoms: O_6  and  C_18 
REMARK    7  A    between atoms: O_7  and  C_19 
REMARK    8  A    between atoms: O_8  and  C_20 
REMARK    9  A    between atoms: O_9  and  C_22 
REMARK   10  A    between atoms: O_10  and  C_23 
REMARK   11  A    between atoms: O_12  and  C_35 
REMARK   12  A    between atoms: O_14  and  C_42 
REMARK   13  A    between atoms: O_15  and  C_40 
REMARK   14  A    between atoms: C_16  and  C_25 
REMARK   15  A    between atoms: C_33  and  C_37 
ROOT
ATOM      1  O   UNK d   1       6.646  13.345   3.729  0.00  0.00    -0.348 OA
ATOM      2  C   UNK d   1       5.561  12.523   3.283  0.00  0.00     0.180 C 
ATOM      3  C   UNK d   1       6.085  11.513   2.248  0.00  0.00     0.180 C 
ATOM      4  C   UNK d   1       6.784  12.253   1.105  0.00  0.00     0.183 C 
ATOM      5  C   UNK d   1       7.861  13.205   1.636  0.00  0.00     0.205 C 
ATOM      6  C   UNK d   1       7.232  14.134   2.692  0.00  0.00     0.298 C 
ENDROOT
BRANCH   6   7
ATOM      7  O   UNK d   1       8.266  14.950   3.259  0.00  0.00    -0.318 OA
BRANCH   7   8
ATOM      8  C   UNK d   1       8.339  16.254   2.847  0.00  0.00     0.077 A 
ATOM      9  C   UNK d   1       9.414  16.855   2.196  0.00  0.00     0.074 A 
ATOM     10  C   UNK d   1       9.393  18.226   1.912  0.00  0.00     0.089 A 
ATOM     11  O   UNK d   1      10.552  18.708   1.369  0.00  0.00    -0.340 OA
ATOM     12  C   UNK d   1       8.269  18.998   2.208  0.00  0.00     0.076 A 
ATOM     13  C   UNK d   1      10.755  20.123   1.456  0.00  0.00     0.169 C 
ATOM     14  C   UNK d   1       9.512  20.925   1.113  0.00  0.00     0.121 C 
ATOM     15  C   UNK d   1       8.310  20.444   1.873  0.00  0.00     0.167 C 
ATOM     16  O   UNK d   1       7.397  21.218   2.140  0.00  0.00    -0.292 OA
ATOM     17  C   UNK d   1       7.174  18.383   2.827  0.00  0.00     0.085 A 
ATOM     18  C   UNK d   1       7.215  17.023   3.151  0.00  0.00     0.074 A 
BRANCH  13  19
ATOM     19  C   UNK d   1      11.473  20.528   2.742  0.00  0.00    -0.026 A 
ATOM     20  C   UNK d   1      12.118  19.609   3.582  0.00  0.00     0.049 A 
ATOM     21  C   UNK d   1      12.772  20.037   4.743  0.00  0.00     0.099 A 
ATOM     22  C   UNK d   1      12.797  21.388   5.108  0.00  0.00     0.101 A 
ATOM     23  C   UNK d   1      12.154  22.309   4.282  0.00  0.00     0.040 A 
ATOM     24  C   UNK d   1      11.502  21.883   3.115  0.00  0.00     0.012 A 
BRANCH  21  25
ATOM     25  O   UNK d   1      13.403  19.119   5.542  0.00  0.00    -0.358 OA
ATOM     26  H   UNK d   1      13.112  18.229   5.296  0.00  0.00     0.217 HD
ENDBRANCH  21  25
BRANCH  22  27
ATOM     27  O   UNK d   1      13.467  21.693   6.262  0.00  0.00    -0.353 OA
ATOM     28  C   UNK d   1      12.693  21.909   7.432  0.00  0.00     0.210 C 
ENDBRANCH  22  27
ENDBRANCH  13  19
BRANCH  17  29
ATOM     29  O   UNK d   1       6.052  19.095   3.141  0.00  0.00    -0.360 OA
ATOM     30  H   UNK d   1       5.303  18.809   2.595  0.00  0.00     0.217 HD
ENDBRANCH  17  29
ENDBRANCH   7   8
ENDBRANCH   6   7
BRANCH   5  31
ATOM     31  O   UNK d   1       8.395  13.945   0.527  0.00  0.00    -0.388 OA
ATOM     32  H   UNK d   1       7.764  14.676   0.376  0.00  0.00     0.210 HD
ENDBRANCH   5  31
BRANCH   2  33
ATOM     33  C   UNK d   1       4.959  11.788   4.496  0.00  0.00     0.205 C 
BRANCH  33  34
ATOM     34  O   UNK d   1       5.588  10.524   4.739  0.00  0.00    -0.356 OA
BRANCH  34  35
ATOM     35  C   UNK d   1       4.672   9.477   5.080  0.00  0.00     0.291 C 
ATOM     36  O   UNK d   1       4.495   9.452   6.504  0.00  0.00    -0.351 OA
ATOM     37  C   UNK d   1       4.129   8.194   7.077  0.00  0.00     0.152 C 
ATOM     38  C   UNK d   1       3.348   7.321   6.089  0.00  0.00     0.178 C 
ATOM     39  C   UNK d   1       3.338   8.498   8.345  0.00  0.00     0.042 C 
ATOM     40  C   UNK d   1       4.250   6.989   4.889  0.00  0.00     0.183 C 
ATOM     41  C   UNK d   1       5.213   8.136   4.537  0.00  0.00     0.204 C 
BRANCH  38  42
ATOM     42  O   UNK d   1       2.890   6.093   6.656  0.00  0.00    -0.390 OA
ATOM     43  H   UNK d   1       3.535   5.401   6.429  0.00  0.00     0.210 HD
ENDBRANCH  38  42
BRANCH  40  44
ATOM     44  O   UNK d   1       3.412   6.684   3.753  0.00  0.00    -0.390 OA
ATOM     45  H   UNK d   1       2.508   6.948   4.020  0.00  0.00     0.210 HD
ENDBRANCH  40  44
BRANCH  41  46
ATOM     46  O   UNK d   1       5.438   8.153   3.119  0.00  0.00    -0.388 OA
ATOM     47  H   UNK d   1       5.795   9.046   2.925  0.00  0.00     0.210 HD
ENDBRANCH  41  46
ENDBRANCH  34  35
ENDBRANCH  33  34
ENDBRANCH   2  33
BRANCH   4  48
ATOM     48  O   UNK d   1       7.392  11.312   0.203  0.00  0.00    -0.390 OA
ATOM     49  H   UNK d   1       6.909  11.391  -0.639  0.00  0.00     0.210 HD
ENDBRANCH   4  48
BRANCH   3  50
ATOM     50  O   UNK d   1       5.022  10.725   1.709  0.00  0.00    -0.390 OA
ATOM     51  H   UNK d   1       5.429  10.050   1.136  0.00  0.00     0.210 HD
ENDBRANCH   3  50
TORSDOF 15
ENDMDL
MODEL 7
REMARK VINA RESULT:      -7.0      3.463      6.660
REMARK  15 active torsions:
REMARK  status: ('A' for Active; 'I' for Inactive)
REMARK    1  A    between atoms: O_2  and  C_21 
REMARK    2  A    between atoms: O_2  and  C_25 
REMARK    3  A    between atoms: O_4  and  C_17 
REMARK    4  A    between atoms: O_5  and  C_24 
REMARK    5  A    between atoms: O_5  and  C_28 
REMARK    6  A    between atoms: O_6  and  C_18 
REMARK    7  A    between atoms: O_7  and  C_19 
REMARK    8  A    between atoms: O_8  and  C_20 
REMARK    9  A    between atoms: O_9  and  C_22 
REMARK   10  A    between atoms: O_10  and  C_23 
REMARK   11  A    between atoms: O_12  and  C_35 
REMARK   12  A    between atoms: O_14  and  C_42 
REMARK   13  A    between atoms: O_15  and  C_40 
REMARK   14  A    between atoms: C_16  and  C_25 
REMARK   15  A    between atoms: C_33  and  C_37 
ROOT
ATOM      1  O   UNK d   1       8.766  16.791   3.350  0.00  0.00    -0.348 OA
ATOM      2  C   UNK d   1       8.921  15.489   2.777  0.00  0.00     0.180 C 
ATOM      3  C   UNK d   1       9.712  14.599   3.750  0.00  0.00     0.180 C 
ATOM      4  C   UNK d   1      11.047  15.263   4.096  0.00  0.00     0.183 C 
ATOM      5  C   UNK d   1      10.841  16.695   4.601  0.00  0.00     0.205 C 
ATOM      6  C   UNK d   1      10.002  17.473   3.569  0.00  0.00     0.298 C 
ENDROOT
BRANCH   6   7
ATOM      7  O   UNK d   1       9.725  18.779   4.094  0.00  0.00    -0.318 OA
BRANCH   7   8
ATOM      8  C   UNK d   1       9.482  19.783   3.197  0.00  0.00     0.077 A 
ATOM      9  C   UNK d   1       8.945  21.036   3.484  0.00  0.00     0.074 A 
ATOM     10  C   UNK d   1       8.662  21.939   2.453  0.00  0.00     0.089 A 
ATOM     11  O   UNK d   1       8.041  23.087   2.860  0.00  0.00    -0.340 OA
ATOM     12  C   UNK d   1       8.980  21.631   1.129  0.00  0.00     0.076 A 
ATOM     13  C   UNK d   1       7.352  23.832   1.850  0.00  0.00     0.169 C 
ATOM     14  C   UNK d   1       8.148  23.965   0.562  0.00  0.00     0.121 C 
ATOM     15  C   UNK d   1       8.660  22.637   0.085  0.00  0.00     0.167 C 
ATOM     16  O   UNK d   1       8.850  22.443  -1.111  0.00  0.00    -0.292 OA
ATOM     17  C   UNK d   1       9.555  20.387   0.847  0.00  0.00     0.085 A 
ATOM     18  C   UNK d   1       9.794  19.468   1.873  0.00  0.00     0.074 A 
BRANCH  13  19
ATOM     19  C   UNK d   1       5.899  23.389   1.690  0.00  0.00    -0.026 A 
ATOM     20  C   UNK d   1       5.127  22.897   2.753  0.00  0.00     0.049 A 
ATOM     21  C   UNK d   1       3.795  22.516   2.553  0.00  0.00     0.099 A 
ATOM     22  C   UNK d   1       3.194  22.604   1.292  0.00  0.00     0.101 A 
ATOM     23  C   UNK d   1       3.956  23.087   0.229  0.00  0.00     0.040 A 
ATOM     24  C   UNK d   1       5.290  23.473   0.427  0.00  0.00     0.012 A 
BRANCH  21  25
ATOM     25  O   UNK d   1       3.060  22.048   3.611  0.00  0.00    -0.358 OA
ATOM     26  H   UNK d   1       2.462  22.746   3.918  0.00  0.00     0.217 HD
ENDBRANCH  21  25
BRANCH  22  27
ATOM     27  O   UNK d   1       1.887  22.206   1.213  0.00  0.00    -0.353 OA
ATOM     28  C   UNK d   1       0.961  23.109   0.626  0.00  0.00     0.210 C 
ENDBRANCH  22  27
ENDBRANCH  13  19
BRANCH  17  29
ATOM     29  O   UNK d   1       9.880  20.035  -0.432  0.00  0.00    -0.360 OA
ATOM     30  H   UNK d   1      10.015  20.826  -0.978  0.00  0.00     0.217 HD
ENDBRANCH  17  29
ENDBRANCH   7   8
ENDBRANCH   6   7
BRANCH   5  31
ATOM     31  O   UNK d   1      12.131  17.294   4.799  0.00  0.00    -0.388 OA
ATOM     32  H   UNK d   1      12.681  16.595   5.204  0.00  0.00     0.210 HD
ENDBRANCH   5  31
BRANCH   2  33
ATOM     33  C   UNK d   1       7.527  14.890   2.510  0.00  0.00     0.205 C 
BRANCH  33  34
ATOM     34  O   UNK d   1       7.586  13.696   1.720  0.00  0.00    -0.356 OA
BRANCH  34  35
ATOM     35  C   UNK d   1       6.677  12.673   2.148  0.00  0.00     0.291 C 
ATOM     36  O   UNK d   1       6.571  12.708   3.579  0.00  0.00    -0.351 OA
ATOM     37  C   UNK d   1       6.222  11.478   4.219  0.00  0.00     0.152 C 
ATOM     38  C   UNK d   1       5.384  10.575   3.306  0.00  0.00     0.178 C 
ATOM     39  C   UNK d   1       5.497  11.840   5.511  0.00  0.00     0.042 C 
ATOM     40  C   UNK d   1       6.222  10.185   2.078  0.00  0.00     0.183 C 
ATOM     41  C   UNK d   1       7.178  11.306   1.633  0.00  0.00     0.204 C 
BRANCH  38  42
ATOM     42  O   UNK d   1       4.943   9.376   3.944  0.00  0.00    -0.390 OA
ATOM     43  H   UNK d   1       5.059   8.643   3.314  0.00  0.00     0.210 HD
ENDBRANCH  38  42
BRANCH  40  44
ATOM     44  O   UNK d   1       5.326   9.845   0.997  0.00  0.00    -0.390 OA
ATOM     45  H   UNK d   1       4.486   9.589   1.429  0.00  0.00     0.210 HD
ENDBRANCH  40  44
BRANCH  41  46
ATOM     46  O   UNK d   1       7.332  11.264   0.206  0.00  0.00    -0.388 OA
ATOM     47  H   UNK d   1       6.453  11.507  -0.156  0.00  0.00     0.210 HD
ENDBRANCH  41  46
ENDBRANCH  34  35
ENDBRANCH  33  34
ENDBRANCH   2  33
BRANCH   4  48
ATOM     48  O   UNK d   1      11.731  14.503   5.107  0.00  0.00    -0.390 OA
ATOM     49  H   UNK d   1      12.557  14.186   4.697  0.00  0.00     0.210 HD
ENDBRANCH   4  48
BRANCH   3  50
ATOM     50  O   UNK d   1       9.967  13.311   3.184  0.00  0.00    -0.390 OA
ATOM     51  H   UNK d   1       9.508  12.659   3.744  0.00  0.00     0.210 HD
ENDBRANCH   3  50
TORSDOF 15
ENDMDL
MODEL 8
REMARK VINA RESULT:      -6.9      2.339      7.524
REMARK  15 active torsions:
REMARK  status: ('A' for Active; 'I' for Inactive)
REMARK    1  A    between atoms: O_2  and  C_21 
REMARK    2  A    between atoms: O_2  and  C_25 
REMARK    3  A    between atoms: O_4  and  C_17 
REMARK    4  A    between atoms: O_5  and  C_24 
REMARK    5  A    between atoms: O_5  and  C_28 
REMARK    6  A    between atoms: O_6  and  C_18 
REMARK    7  A    between atoms: O_7  and  C_19 
REMARK    8  A    between atoms: O_8  and  C_20 
REMARK    9  A    between atoms: O_9  and  C_22 
REMARK   10  A    between atoms: O_10  and  C_23 
REMARK   11  A    between atoms: O_12  and  C_35 
REMARK   12  A    between atoms: O_14  and  C_42 
REMARK   13  A    between atoms: O_15  and  C_40 
REMARK   14  A    between atoms: C_16  and  C_25 
REMARK   15  A    between atoms: C_33  and  C_37 
ROOT
ATOM      1  O   UNK d   1      10.414  18.600   2.044  0.00  0.00    -0.348 OA
ATOM      2  C   UNK d   1       9.065  18.510   1.574  0.00  0.00     0.180 C 
ATOM      3  C   UNK d   1       8.932  19.307   0.265  0.00  0.00     0.180 C 
ATOM      4  C   UNK d   1       9.394  20.750   0.485  0.00  0.00     0.183 C 
ATOM      5  C   UNK d   1      10.799  20.796   1.094  0.00  0.00     0.205 C 
ATOM      6  C   UNK d   1      10.822  19.930   2.367  0.00  0.00     0.298 C 
ENDROOT
BRANCH   6   7
ATOM      7  O   UNK d   1      12.163  19.894   2.874  0.00  0.00    -0.318 OA
BRANCH   7   8
ATOM      8  C   UNK d   1      12.347  20.188   4.198  0.00  0.00     0.077 A 
ATOM      9  C   UNK d   1      13.166  19.500   5.090  0.00  0.00     0.074 A 
ATOM     10  C   UNK d   1      13.191  19.852   6.445  0.00  0.00     0.089 A 
ATOM     11  O   UNK d   1      13.955  19.032   7.229  0.00  0.00    -0.340 OA
ATOM     12  C   UNK d   1      12.455  20.942   6.911  0.00  0.00     0.076 A 
ATOM     13  C   UNK d   1      13.687  19.066   8.636  0.00  0.00     0.169 C 
ATOM     14  C   UNK d   1      13.513  20.475   9.175  0.00  0.00     0.121 C 
ATOM     15  C   UNK d   1      12.532  21.266   8.359  0.00  0.00     0.167 C 
ATOM     16  O   UNK d   1      11.884  22.169   8.877  0.00  0.00    -0.292 OA
ATOM     17  C   UNK d   1      11.662  21.656   6.005  0.00  0.00     0.085 A 
ATOM     18  C   UNK d   1      11.603  21.274   4.662  0.00  0.00     0.074 A 
BRANCH  13  19
ATOM     19  C   UNK d   1      12.614  18.059   9.047  0.00  0.00    -0.026 A 
ATOM     20  C   UNK d   1      11.740  17.454   8.132  0.00  0.00     0.049 A 
ATOM     21  C   UNK d   1      10.783  16.529   8.562  0.00  0.00     0.099 A 
ATOM     22  C   UNK d   1      10.659  16.184   9.913  0.00  0.00     0.101 A 
ATOM     23  C   UNK d   1      11.519  16.785  10.830  0.00  0.00     0.040 A 
ATOM     24  C   UNK d   1      12.483  17.710  10.402  0.00  0.00     0.012 A 
BRANCH  21  25
ATOM     25  O   UNK d   1       9.947  15.944   7.646  0.00  0.00    -0.358 OA
ATOM     26  H   UNK d   1      10.347  16.003   6.766  0.00  0.00     0.217 HD
ENDBRANCH  21  25
BRANCH  22  27
ATOM     27  O   UNK d   1       9.689  15.267  10.219  0.00  0.00    -0.353 OA
ATOM     28  C   UNK d   1       8.630  15.691  11.064  0.00  0.00     0.210 C 
ENDBRANCH  22  27
ENDBRANCH  13  19
BRANCH  17  29
ATOM     29  O   UNK d   1      10.918  22.727   6.412  0.00  0.00    -0.360 OA
ATOM     30  H   UNK d   1      10.577  23.215   5.646  0.00  0.00     0.217 HD
ENDBRANCH  17  29
ENDBRANCH   7   8
ENDBRANCH   6   7
BRANCH   5  31
ATOM     31  O   UNK d   1      11.123  22.167   1.376  0.00  0.00    -0.388 OA
ATOM     32  H   UNK d   1      10.893  22.298   2.316  0.00  0.00     0.210 HD
ENDBRANCH   5  31
BRANCH   2  33
ATOM     33  C   UNK d   1       8.714  17.028   1.339  0.00  0.00     0.205 C 
BRANCH  33  34
ATOM     34  O   UNK d   1       9.873  16.186   1.323  0.00  0.00    -0.356 OA
BRANCH  34  35
ATOM     35  C   UNK d   1       9.784  15.060   2.206  0.00  0.00     0.291 C 
ATOM     36  O   UNK d   1       8.632  14.278   1.855  0.00  0.00    -0.351 OA
ATOM     37  C   UNK d   1       8.045  13.507   2.905  0.00  0.00     0.152 C 
ATOM     38  C   UNK d   1       9.076  13.108   3.967  0.00  0.00     0.178 C 
ATOM     39  C   UNK d   1       7.380  12.300   2.251  0.00  0.00     0.042 C 
ATOM     40  C   UNK d   1       9.625  14.377   4.637  0.00  0.00     0.183 C 
ATOM     41  C   UNK d   1       9.724  15.566   3.664  0.00  0.00     0.204 C 
BRANCH  38  42
ATOM     42  O   UNK d   1       8.543  12.261   4.986  0.00  0.00    -0.390 OA
ATOM     43  H   UNK d   1       7.690  12.636   5.269  0.00  0.00     0.210 HD
ENDBRANCH  38  42
BRANCH  40  44
ATOM     44  O   UNK d   1      10.929  14.083   5.185  0.00  0.00    -0.390 OA
ATOM     45  H   UNK d   1      11.409  13.614   4.473  0.00  0.00     0.210 HD
ENDBRANCH  40  44
BRANCH  41  46
ATOM     46  O   UNK d   1      10.846  16.386   4.022  0.00  0.00    -0.388 OA
ATOM     47  H   UNK d   1      10.607  16.789   4.883  0.00  0.00     0.210 HD
ENDBRANCH  41  46
ENDBRANCH  34  35
ENDBRANCH  33  34
ENDBRANCH   2  33
BRANCH   4  48
ATOM     48  O   UNK d   1       9.399  21.464  -0.763  0.00  0.00    -0.390 OA
ATOM     49  H   UNK d   1      10.241  21.956  -0.792  0.00  0.00     0.210 HD
ENDBRANCH   4  48
BRANCH   3  50
ATOM     50  O   UNK d   1       7.580  19.318  -0.199  0.00  0.00    -0.390 OA
ATOM     51  H   UNK d   1       7.526  18.677  -0.932  0.00  0.00     0.210 HD
ENDBRANCH   3  50
TORSDOF 15
ENDMDL
MODEL 9
REMARK VINA RESULT:      -6.8     25.367     29.804
REMARK  15 active torsions:
REMARK  status: ('A' for Active; 'I' for Inactive)
REMARK    1  A    between atoms: O_2  and  C_21 
REMARK    2  A    between atoms: O_2  and  C_25 
REMARK    3  A    between atoms: O_4  and  C_17 
REMARK    4  A    between atoms: O_5  and  C_24 
REMARK    5  A    between atoms: O_5  and  C_28 
REMARK    6  A    between atoms: O_6  and  C_18 
REMARK    7  A    between atoms: O_7  and  C_19 
REMARK    8  A    between atoms: O_8  and  C_20 
REMARK    9  A    between atoms: O_9  and  C_22 
REMARK   10  A    between atoms: O_10  and  C_23 
REMARK   11  A    between atoms: O_12  and  C_35 
REMARK   12  A    between atoms: O_14  and  C_42 
REMARK   13  A    between atoms: O_15  and  C_40 
REMARK   14  A    between atoms: C_16  and  C_25 
REMARK   15  A    between atoms: C_33  and  C_37 
ROOT
ATOM      1  O   UNK d   1       7.148   1.121  21.527  0.00  0.00    -0.348 OA
ATOM      2  C   UNK d   1       5.951   1.676  20.972  0.00  0.00     0.180 C 
ATOM      3  C   UNK d   1       5.382   0.705  19.924  0.00  0.00     0.180 C 
ATOM      4  C   UNK d   1       6.446   0.397  18.867  0.00  0.00     0.183 C 
ATOM      5  C   UNK d   1       7.747  -0.088  19.513  0.00  0.00     0.205 C 
ATOM      6  C   UNK d   1       8.194   0.939  20.571  0.00  0.00     0.298 C 
ENDROOT
BRANCH   6   7
ATOM      7  O   UNK d   1       9.354   0.430  21.243  0.00  0.00    -0.318 OA
BRANCH   7   8
ATOM      8  C   UNK d   1       9.164  -0.207  22.439  0.00  0.00     0.077 A 
ATOM      9  C   UNK d   1       9.512  -1.522  22.739  0.00  0.00     0.074 A 
ATOM     10  C   UNK d   1       9.175  -2.079  23.978  0.00  0.00     0.089 A 
ATOM     11  O   UNK d   1       9.480  -3.407  24.104  0.00  0.00    -0.340 OA
ATOM     12  C   UNK d   1       8.552  -1.308  24.961  0.00  0.00     0.076 A 
ATOM     13  C   UNK d   1       8.793  -4.123  25.137  0.00  0.00     0.169 C 
ATOM     14  C   UNK d   1       8.731  -3.360  26.449  0.00  0.00     0.121 C 
ATOM     15  C   UNK d   1       8.229  -1.959  26.256  0.00  0.00     0.167 C 
ATOM     16  O   UNK d   1       7.636  -1.384  27.163  0.00  0.00    -0.292 OA
ATOM     17  C   UNK d   1       8.238   0.025  24.671  0.00  0.00     0.085 A 
ATOM     18  C   UNK d   1       8.534   0.566  23.415  0.00  0.00     0.074 A 
BRANCH  13  19
ATOM     19  C   UNK d   1       7.473  -4.719  24.651  0.00  0.00    -0.026 A 
ATOM     20  C   UNK d   1       7.277  -5.183  23.342  0.00  0.00     0.049 A 
ATOM     21  C   UNK d   1       6.050  -5.732  22.955  0.00  0.00     0.099 A 
ATOM     22  C   UNK d   1       4.980  -5.829  23.851  0.00  0.00     0.101 A 
ATOM     23  C   UNK d   1       5.164  -5.365  25.153  0.00  0.00     0.040 A 
ATOM     24  C   UNK d   1       6.394  -4.818  25.546  0.00  0.00     0.012 A 
BRANCH  21  25
ATOM     25  O   UNK d   1       5.888  -6.187  21.672  0.00  0.00    -0.358 OA
ATOM     26  H   UNK d   1       5.051  -6.671  21.608  0.00  0.00     0.217 HD
ENDBRANCH  21  25
BRANCH  22  27
ATOM     27  O   UNK d   1       3.828  -6.384  23.364  0.00  0.00    -0.353 OA
ATOM     28  C   UNK d   1       3.145  -7.312  24.194  0.00  0.00     0.210 C 
ENDBRANCH  22  27
ENDBRANCH  13  19
BRANCH  17  29
ATOM     29  O   UNK d   1       7.623   0.821  25.595  0.00  0.00    -0.360 OA
ATOM     30  H   UNK d   1       6.855   0.368  25.976  0.00  0.00     0.217 HD
ENDBRANCH  17  29
ENDBRANCH   7   8
ENDBRANCH   6   7
BRANCH   5  31
ATOM     31  O   UNK d   1       8.731  -0.249  18.479  0.00  0.00    -0.388 OA
ATOM     32  H   UNK d   1       9.468   0.341  18.729  0.00  0.00     0.210 HD
ENDBRANCH   5  31
BRANCH   2  33
ATOM     33  C   UNK d   1       4.932   1.903  22.105  0.00  0.00     0.205 C 
BRANCH  33  34
ATOM     34  O   UNK d   1       4.027   2.977  21.821  0.00  0.00    -0.356 OA
BRANCH  34  35
ATOM     35  C   UNK d   1       2.782   2.887  22.524  0.00  0.00     0.291 C 
ATOM     36  O   UNK d   1       3.042   2.593  23.904  0.00  0.00    -0.351 OA
ATOM     37  C   UNK d   1       2.008   1.905  24.613  0.00  0.00     0.152 C 
ATOM     38  C   UNK d   1       0.621   2.206  24.035  0.00  0.00     0.178 C 
ATOM     39  C   UNK d   1       2.133   2.307  26.079  0.00  0.00     0.042 C 
ATOM     40  C   UNK d   1       0.555   1.688  22.590  0.00  0.00     0.183 C 
ATOM     41  C   UNK d   1       1.901   1.809  21.854  0.00  0.00     0.204 C 
BRANCH  38  42
ATOM     42  O   UNK d   1      -0.444   1.606  24.773  0.00  0.00    -0.390 OA
ATOM     43  H   UNK d   1      -0.113   1.412  25.669  0.00  0.00     0.210 HD
ENDBRANCH  38  42
BRANCH  40  44
ATOM     44  O   UNK d   1      -0.461   2.428  21.880  0.00  0.00    -0.390 OA
ATOM     45  H   UNK d   1      -0.037   2.715  21.046  0.00  0.00     0.210 HD
ENDBRANCH  40  44
BRANCH  41  46
ATOM     46  O   UNK d   1       1.664   2.062  20.461  0.00  0.00    -0.388 OA
ATOM     47  H   UNK d   1       2.549   2.243  20.078  0.00  0.00     0.210 HD
ENDBRANCH  41  46
ENDBRANCH  34  35
ENDBRANCH  33  34
ENDBRANCH   2  33
BRANCH   4  48
ATOM     48  O   UNK d   1       5.967  -0.612  17.961  0.00  0.00    -0.390 OA
ATOM     49  H   UNK d   1       6.300  -1.464  18.300  0.00  0.00     0.210 HD
ENDBRANCH   4  48
BRANCH   3  50
ATOM     50  O   UNK d   1       4.231   1.254  19.279  0.00  0.00    -0.390 OA
ATOM     51  H   UNK d   1       3.817   1.869  19.911  0.00  0.00     0.210 HD
ENDBRANCH   3  50
TORSDOF 15
ENDMDL
