REMARK  9 active torsions:
REMARK  status: ('A' for Active; 'I' for Inactive)
REMARK    1  A    between atoms: N_3  and  C_17 
REMARK    2  A    between atoms: N_4  and  C_18 
REMARK       I    between atoms: N_5  and  C_19 
REMARK       I    between atoms: N_6  and  C_20 
REMARK       I    between atoms: N_7  and  C_19 
REMARK       I    between atoms: N_8  and  C_20 
REMARK       I    between atoms: N_9  and  C_21 
REMARK    3  A    between atoms: N_9  and  C_23 
REMARK       I    between atoms: N_10  and  C_22 
REMARK    4  A    between atoms: N_10  and  C_24 
REMARK       I    between atoms: N_11  and  C_21 
REMARK       I    between atoms: N_12  and  C_22 
REMARK    5  A    between atoms: C_13  and  C_14 
REMARK    6  A    between atoms: C_13  and  C_15 
REMARK    7  A    between atoms: C_14  and  C_16 
REMARK    8  A    between atoms: C_15  and  C_17 
REMARK    9  A    between atoms: C_16  and  C_18 
ROOT
ATOM      1  C   LIG d   1       6.488 -15.833   3.518  0.00  0.00     0.002 C 
ENDROOT
BRANCH   1   2
ATOM      2  C   LIG d   1       6.115 -15.630   2.049  0.00  0.00     0.002 C 
BRANCH   2   3
ATOM      3  C   LIG d   1       7.256 -14.972   1.273  0.00  0.00     0.022 C 
BRANCH   3   4
ATOM      4  C   LIG d   1       8.314 -14.405   2.218  0.00  0.00     0.152 C 
BRANCH   4   5
ATOM      5  N   LIG d   1       8.795 -13.124   1.706  0.00  0.00    -0.261 NA
ATOM      6  C   LIG d   1       8.284 -12.027   2.134  0.00  0.00     0.197 C 
ATOM      7  N   LIG d   1       8.774 -10.853   1.648  0.00  0.00    -0.190 NA
ATOM      8  N   LIG d   1       7.318 -11.879   3.077  0.00  0.00    -0.271 NA
ATOM      9  C   LIG d   1       9.099 -10.716   0.404  0.00  0.00     0.180 C 
ATOM     10  N   LIG d   1       9.579  -9.565  -0.166  0.00  0.00    -0.331 N 
ATOM     11  N   LIG d   1       8.994 -11.673  -0.569  0.00  0.00    -0.272 NA
ATOM     12  H   LIG d   1       9.289  -9.443  -1.125  0.00  0.00     0.168 HD
ATOM     13  H   LIG d   1       8.839 -12.581  -0.121  0.00  0.00     0.127 HD
ATOM     14  H   LIG d   1       9.841 -11.738  -1.123  0.00  0.00     0.127 HD
ATOM     15  H   LIG d   1       7.383 -12.531   3.844  0.00  0.00     0.127 HD
ATOM     16  H   LIG d   1       7.295 -10.918   3.397  0.00  0.00     0.127 HD
BRANCH  10  17
ATOM     17  C   LIG d   1       9.998  -8.389   0.480  0.00  0.00     0.034 A 
ATOM     18  C   LIG d   1       9.502  -7.152   0.038  0.00  0.00     0.031 A 
ATOM     19  C   LIG d   1       9.907  -5.953   0.636  0.00  0.00     0.026 A 
ATOM     20  C   LIG d   1      10.826  -5.979   1.680  0.00  0.00     0.034 A 
ATOM     21 CL   LIG d   1      11.331  -4.508   2.414  0.00  0.00    -0.084 Cl
ATOM     22  C   LIG d   1      11.342  -7.189   2.126  0.00  0.00     0.026 A 
ATOM     23  C   LIG d   1      10.931  -8.384   1.527  0.00  0.00     0.031 A 
ENDBRANCH  10  17
ENDBRANCH   4   5
ENDBRANCH   3   4
ENDBRANCH   2   3
ENDBRANCH   1   2
BRANCH   1  24
ATOM     24  C   LIG d   1       5.494 -15.136   4.446  0.00  0.00     0.022 C 
BRANCH  24  25
ATOM     25  C   LIG d   1       6.183 -14.611   5.705  0.00  0.00     0.152 C 
BRANCH  25  26
ATOM     26  N   LIG d   1       7.286 -13.724   5.346  0.00  0.00    -0.261 NA
ATOM     27  C   LIG d   1       8.495 -14.040   5.650  0.00  0.00     0.197 C 
ATOM     28  N   LIG d   1       9.511 -13.196   5.302  0.00  0.00    -0.190 NA
ATOM     29  N   LIG d   1       8.909 -15.185   6.254  0.00  0.00    -0.271 NA
ATOM     30  C   LIG d   1       9.338 -11.913   5.191  0.00  0.00     0.180 C 
ATOM     31  N   LIG d   1      10.406 -11.158   4.799  0.00  0.00    -0.331 N 
ATOM     32  N   LIG d   1       8.169 -11.234   5.353  0.00  0.00    -0.272 NA
ATOM     33  H   LIG d   1      11.219 -11.731   4.602  0.00  0.00     0.168 HD
ATOM     34  H   LIG d   1       7.384 -11.893   5.359  0.00  0.00     0.127 HD
ATOM     35  H   LIG d   1       8.034 -10.527   4.641  0.00  0.00     0.127 HD
ATOM     36  H   LIG d   1       8.372 -16.004   6.015  0.00  0.00     0.127 HD
ATOM     37  H   LIG d   1       9.903 -15.317   6.118  0.00  0.00     0.127 HD
BRANCH  31  38
ATOM     38  C   LIG d   1      10.743  -9.821   5.090  0.00  0.00     0.034 A 
ATOM     39  C   LIG d   1       9.821  -9.052   5.821  0.00  0.00     0.031 A 
ATOM     40  C   LIG d   1      10.107  -7.734   6.193  0.00  0.00     0.026 A 
ATOM     41  C   LIG d   1      11.329  -7.171   5.843  0.00  0.00     0.034 A 
ATOM     42 CL   LIG d   1      11.690  -5.553   6.302  0.00  0.00    -0.084 Cl
ATOM     43  C   LIG d   1      12.261  -7.914   5.127  0.00  0.00     0.026 A 
ATOM     44  C   LIG d   1      11.969  -9.232   4.758  0.00  0.00     0.031 A 
ENDBRANCH  31  38
ENDBRANCH  25  26
ENDBRANCH  24  25
ENDBRANCH   1  24
TORSDOF 9
