MODEL 1
REMARK minimizedAffinity -6.44717121REMARK CNNscore 0.930329621REMARK CNNaffinity 3.94278717REMARK  2 active torsions:
REMARK  status: ('A' for Active; 'I' for Inactive)
REMARK    1  A    between atoms: O_1  and  C_9 
REMARK    2  A    between atoms: N_3  and  C_4 
REMARK       I    between atoms: N_3  and  C_10 
ROOT
ATOM      1  C   LIG d   1       6.250   0.007  -6.790  0.00  0.00     0.034 A 
ATOM      2  C   LIG d   1       5.964   0.215  -8.142  0.00  0.00     0.032 A 
ATOM      3  C   LIG d   1       6.086  -1.277  -6.254  0.00  0.00     0.032 A 
ATOM      4  C   LIG d   1       5.523  -0.841  -8.947  0.00  0.00     0.039 A 
ATOM      5  C   LIG d   1       5.645  -2.333  -7.056  0.00  0.00     0.039 A 
ATOM      6  C   LIG d   1       5.367  -2.107  -8.396  0.00  0.00     0.065 A 
ENDROOT
BRANCH   1   7
ATOM      7  N   LIG d   1       6.701   1.017  -5.916  0.00  0.00    -0.328 N 
ATOM      8  C   LIG d   1       6.137   2.263  -5.704  0.00  0.00     0.218 C 
ATOM      9  O   LIG d   1       5.134   2.723  -6.237  0.00  0.00    -0.274 OA
ATOM     10  C   LIG d   1       6.915   3.065  -4.692  0.00  0.00     0.117 C 
ATOM     11  H   LIG d   1       7.534   0.802  -5.384  0.00  0.00     0.169 HD
ENDBRANCH   1   7
BRANCH   6  12
ATOM     12  O   LIG d   1       4.939  -3.163  -9.144  0.00  0.00    -0.361 OA
ATOM     13  H   LIG d   1       4.788  -2.855 -10.053  0.00  0.00     0.217 HD
ENDBRANCH   6  12
TORSDOF 2
ENDMDL
MODEL 2
REMARK minimizedAffinity -5.12840033REMARK CNNscore 0.880924404REMARK CNNaffinity 3.71029902REMARK  2 active torsions:
REMARK  status: ('A' for Active; 'I' for Inactive)
REMARK    1  A    between atoms: O_1  and  C_9 
REMARK    2  A    between atoms: N_3  and  C_4 
REMARK       I    between atoms: N_3  and  C_10 
ROOT
ATOM      1  C   LIG d   1      19.270   7.534  -3.813  0.00  0.00     0.034 A 
ATOM      2  C   LIG d   1      20.252   7.336  -4.787  0.00  0.00     0.032 A 
ATOM      3  C   LIG d   1      17.975   7.055  -4.050  0.00  0.00     0.032 A 
ATOM      4  C   LIG d   1      19.948   6.669  -5.979  0.00  0.00     0.039 A 
ATOM      5  C   LIG d   1      17.668   6.388  -5.240  0.00  0.00     0.039 A 
ATOM      6  C   LIG d   1      18.657   6.201  -6.195  0.00  0.00     0.065 A 
ENDROOT
BRANCH   1   7
ATOM      7  N   LIG d   1      19.497   8.193  -2.587  0.00  0.00    -0.328 N 
ATOM      8  C   LIG d   1      19.777   9.534  -2.391  0.00  0.00     0.218 C 
ATOM      9  O   LIG d   1      19.878  10.405  -3.247  0.00  0.00    -0.274 OA
ATOM     10  C   LIG d   1      19.964   9.858  -0.930  0.00  0.00     0.117 C 
ATOM     11  H   LIG d   1      19.450   7.615  -1.759  0.00  0.00     0.169 HD
ENDBRANCH   1   7
BRANCH   6  12
ATOM     12  O   LIG d   1      18.318   5.546  -7.341  0.00  0.00    -0.361 OA
ATOM     13  H   LIG d   1      19.106   5.489  -7.907  0.00  0.00     0.217 HD
ENDBRANCH   6  12
TORSDOF 2
ENDMDL
MODEL 3
REMARK minimizedAffinity -4.86482668REMARK CNNscore 0.782261789REMARK CNNaffinity 3.1081214REMARK  2 active torsions:
REMARK  status: ('A' for Active; 'I' for Inactive)
REMARK    1  A    between atoms: O_1  and  C_9 
REMARK    2  A    between atoms: N_3  and  C_4 
REMARK       I    between atoms: N_3  and  C_10 
ROOT
ATOM      1  C   LIG d   1       3.137 -13.172  -6.182  0.00  0.00     0.034 A 
ATOM      2  C   LIG d   1       4.080 -12.144  -6.097  0.00  0.00     0.032 A 
ATOM      3  C   LIG d   1       2.558 -13.659  -5.002  0.00  0.00     0.032 A 
ATOM      4  C   LIG d   1       4.439 -11.609  -4.855  0.00  0.00     0.039 A 
ATOM      5  C   LIG d   1       2.915 -13.125  -3.761  0.00  0.00     0.039 A 
ATOM      6  C   LIG d   1       3.853 -12.105  -3.697  0.00  0.00     0.065 A 
ENDROOT
BRANCH   1   7
ATOM      7  N   LIG d   1       2.720 -13.761  -7.393  0.00  0.00    -0.328 N 
ATOM      8  C   LIG d   1       1.533 -13.547  -8.070  0.00  0.00     0.218 C 
ATOM      9  O   LIG d   1       0.617 -12.801  -7.745  0.00  0.00    -0.274 OA
ATOM     10  C   LIG d   1       1.451 -14.371  -9.331  0.00  0.00     0.117 C 
ATOM     11  H   LIG d   1       3.368 -14.416  -7.811  0.00  0.00     0.169 HD
ENDBRANCH   1   7
BRANCH   6  12
ATOM     12  O   LIG d   1       4.174 -11.612  -2.467  0.00  0.00    -0.361 OA
ATOM     13  H   LIG d   1       4.835 -10.909  -2.581  0.00  0.00     0.217 HD
ENDBRANCH   6  12
TORSDOF 2
ENDMDL
MODEL 4
REMARK minimizedAffinity -4.1931262REMARK CNNscore 0.740157545REMARK CNNaffinity 3.30876613REMARK  2 active torsions:
REMARK  status: ('A' for Active; 'I' for Inactive)
REMARK    1  A    between atoms: O_1  and  C_9 
REMARK    2  A    between atoms: N_3  and  C_4 
REMARK       I    between atoms: N_3  and  C_10 
ROOT
ATOM      1  C   LIG d   1      18.854  -2.210  -3.206  0.00  0.00     0.034 A 
ATOM      2  C   LIG d   1      19.551  -3.124  -2.411  0.00  0.00     0.032 A 
ATOM      3  C   LIG d   1      19.284  -0.876  -3.240  0.00  0.00     0.032 A 
ATOM      4  C   LIG d   1      20.661  -2.715  -1.663  0.00  0.00     0.039 A 
ATOM      5  C   LIG d   1      20.393  -0.466  -2.494  0.00  0.00     0.039 A 
ATOM      6  C   LIG d   1      21.072  -1.388  -1.711  0.00  0.00     0.065 A 
ENDROOT
BRANCH   1   7
ATOM      7  N   LIG d   1      17.730  -2.543  -3.989  0.00  0.00    -0.328 N 
ATOM      8  C   LIG d   1      16.413  -2.639  -3.576  0.00  0.00     0.218 C 
ATOM      9  O   LIG d   1      15.974  -2.449  -2.448  0.00  0.00    -0.274 OA
ATOM     10  C   LIG d   1      15.498  -3.027  -4.710  0.00  0.00     0.117 C 
ATOM     11  H   LIG d   1      17.913  -2.734  -4.966  0.00  0.00     0.169 HD
ENDBRANCH   1   7
BRANCH   6  12
ATOM     12  O   LIG d   1      22.147  -0.948  -0.999  0.00  0.00    -0.361 OA
ATOM     13  H   LIG d   1      22.518  -1.699  -0.506  0.00  0.00     0.217 HD
ENDBRANCH   6  12
TORSDOF 2
ENDMDL
MODEL 5
REMARK minimizedAffinity -2.96190238REMARK CNNscore 0.726551175REMARK CNNaffinity 2.89763021REMARK  2 active torsions:
REMARK  status: ('A' for Active; 'I' for Inactive)
REMARK    1  A    between atoms: O_1  and  C_9 
REMARK    2  A    between atoms: N_3  and  C_4 
REMARK       I    between atoms: N_3  and  C_10 
ROOT
ATOM      1  C   LIG d   1      27.369 -13.225  15.350  0.00  0.00     0.034 A 
ATOM      2  C   LIG d   1      27.788 -13.189  14.017  0.00  0.00     0.032 A 
ATOM      3  C   LIG d   1      27.362 -12.034  16.089  0.00  0.00     0.032 A 
ATOM      4  C   LIG d   1      28.191 -11.985  13.429  0.00  0.00     0.039 A 
ATOM      5  C   LIG d   1      27.764 -10.830  15.504  0.00  0.00     0.039 A 
ATOM      6  C   LIG d   1      28.176 -10.815  14.180  0.00  0.00     0.065 A 
ENDROOT
BRANCH   1   7
ATOM      7  N   LIG d   1      26.947 -14.396  16.012  0.00  0.00    -0.328 N 
ATOM      8  C   LIG d   1      27.739 -15.414  16.512  0.00  0.00     0.218 C 
ATOM      9  O   LIG d   1      28.962 -15.488  16.477  0.00  0.00    -0.274 OA
ATOM     10  C   LIG d   1      26.914 -16.504  17.149  0.00  0.00     0.117 C 
ATOM     11  H   LIG d   1      25.948 -14.499  16.132  0.00  0.00     0.169 HD
ENDBRANCH   1   7
BRANCH   6  12
ATOM     12  O   LIG d   1      28.560  -9.621  13.646  0.00  0.00    -0.361 OA
ATOM     13  H   LIG d   1      28.817  -9.766  12.721  0.00  0.00     0.217 HD
ENDBRANCH   6  12
TORSDOF 2
ENDMDL
MODEL 6
REMARK minimizedAffinity -3.94245982REMARK CNNscore 0.720687926REMARK CNNaffinity 2.99495578REMARK  2 active torsions:
REMARK  status: ('A' for Active; 'I' for Inactive)
REMARK    1  A    between atoms: O_1  and  C_9 
REMARK    2  A    between atoms: N_3  and  C_4 
REMARK       I    between atoms: N_3  and  C_10 
ROOT
ATOM      1  C   LIG d   1      22.004   8.046  20.349  0.00  0.00     0.034 A 
ATOM      2  C   LIG d   1      21.837   7.288  19.187  0.00  0.00     0.032 A 
ATOM      3  C   LIG d   1      21.962   9.444  20.257  0.00  0.00     0.032 A 
ATOM      4  C   LIG d   1      21.630   7.914  17.952  0.00  0.00     0.039 A 
ATOM      5  C   LIG d   1      21.755  10.071  19.025  0.00  0.00     0.039 A 
ATOM      6  C   LIG d   1      21.592   9.301  17.882  0.00  0.00     0.065 A 
ENDROOT
BRANCH   1   7
ATOM      7  N   LIG d   1      22.213   7.492  21.628  0.00  0.00    -0.328 N 
ATOM      8  C   LIG d   1      23.347   6.848  22.092  0.00  0.00     0.218 C 
ATOM      9  O   LIG d   1      24.387   6.641  21.478  0.00  0.00    -0.274 OA
ATOM     10  C   LIG d   1      23.184   6.389  23.519  0.00  0.00     0.117 C 
ATOM     11  H   LIG d   1      21.443   7.577  22.278  0.00  0.00     0.169 HD
ENDBRANCH   1   7
BRANCH   6  12
ATOM     12  O   LIG d   1      21.393   9.950  16.701  0.00  0.00    -0.361 OA
ATOM     13  H   LIG d   1      21.294   9.287  15.998  0.00  0.00     0.217 HD
ENDBRANCH   6  12
TORSDOF 2
ENDMDL
MODEL 7
REMARK minimizedAffinity -5.05675364REMARK CNNscore 0.712783039REMARK CNNaffinity 3.41533399REMARK  2 active torsions:
REMARK  status: ('A' for Active; 'I' for Inactive)
REMARK    1  A    between atoms: O_1  and  C_9 
REMARK    2  A    between atoms: N_3  and  C_4 
REMARK       I    between atoms: N_3  and  C_10 
ROOT
ATOM      1  C   LIG d   1      18.790   6.553  -3.542  0.00  0.00     0.034 A 
ATOM      2  C   LIG d   1      19.197   5.249  -3.245  0.00  0.00     0.032 A 
ATOM      3  C   LIG d   1      17.865   6.755  -4.574  0.00  0.00     0.032 A 
ATOM      4  C   LIG d   1      18.687   4.164  -3.967  0.00  0.00     0.039 A 
ATOM      5  C   LIG d   1      17.355   5.673  -5.296  0.00  0.00     0.039 A 
ATOM      6  C   LIG d   1      17.770   4.386  -4.987  0.00  0.00     0.065 A 
ENDROOT
BRANCH   1   7
ATOM      7  N   LIG d   1      19.255   7.697  -2.861  0.00  0.00    -0.328 N 
ATOM      8  C   LIG d   1      20.446   8.372  -3.061  0.00  0.00     0.218 C 
ATOM      9  O   LIG d   1      21.324   8.102  -3.872  0.00  0.00    -0.274 OA
ATOM     10  C   LIG d   1      20.586   9.549  -2.129  0.00  0.00     0.117 C 
ATOM     11  H   LIG d   1      18.643   8.064  -2.144  0.00  0.00     0.169 HD
ENDBRANCH   1   7
BRANCH   6  12
ATOM     12  O   LIG d   1      17.249   3.357  -5.713  0.00  0.00    -0.361 OA
ATOM     13  H   LIG d   1      17.628   2.525  -5.384  0.00  0.00     0.217 HD
ENDBRANCH   6  12
TORSDOF 2
ENDMDL
MODEL 8
REMARK minimizedAffinity -4.92126465REMARK CNNscore 0.71023643REMARK CNNaffinity 3.59262609REMARK  2 active torsions:
REMARK  status: ('A' for Active; 'I' for Inactive)
REMARK    1  A    between atoms: O_1  and  C_9 
REMARK    2  A    between atoms: N_3  and  C_4 
REMARK       I    between atoms: N_3  and  C_10 
ROOT
ATOM      1  C   LIG d   1       9.522  21.786  -0.712  0.00  0.00     0.034 A 
ATOM      2  C   LIG d   1      10.059  22.898  -0.057  0.00  0.00     0.032 A 
ATOM      3  C   LIG d   1       8.634  21.991  -1.777  0.00  0.00     0.032 A 
ATOM      4  C   LIG d   1       9.717  24.194  -0.459  0.00  0.00     0.039 A 
ATOM      5  C   LIG d   1       8.292  23.285  -2.180  0.00  0.00     0.039 A 
ATOM      6  C   LIG d   1       8.836  24.376  -1.518  0.00  0.00     0.065 A 
ENDROOT
BRANCH   1   7
ATOM      7  N   LIG d   1       9.818  20.451  -0.369  0.00  0.00    -0.328 N 
ATOM      8  C   LIG d   1       8.926  19.405  -0.206  0.00  0.00     0.218 C 
ATOM      9  O   LIG d   1       7.708  19.442  -0.332  0.00  0.00    -0.274 OA
ATOM     10  C   LIG d   1       9.629  18.124   0.169  0.00  0.00     0.117 C 
ATOM     11  H   LIG d   1      10.796  20.237  -0.227  0.00  0.00     0.169 HD
ENDBRANCH   1   7
BRANCH   6  12
ATOM     12  O   LIG d   1       8.477  25.621  -1.941  0.00  0.00    -0.361 OA
ATOM     13  H   LIG d   1       8.934  26.277  -1.390  0.00  0.00     0.217 HD
ENDBRANCH   6  12
TORSDOF 2
ENDMDL
MODEL 9
REMARK minimizedAffinity -4.54234362REMARK CNNscore 0.677786112REMARK CNNaffinity 3.2044003REMARK  2 active torsions:
REMARK  status: ('A' for Active; 'I' for Inactive)
REMARK    1  A    between atoms: O_1  and  C_9 
REMARK    2  A    between atoms: N_3  and  C_4 
REMARK       I    between atoms: N_3  and  C_10 
ROOT
ATOM      1  C   LIG d   1      22.892  -0.969  22.904  0.00  0.00     0.034 A 
ATOM      2  C   LIG d   1      23.286   0.222  23.520  0.00  0.00     0.032 A 
ATOM      3  C   LIG d   1      22.431  -2.024  23.704  0.00  0.00     0.032 A 
ATOM      4  C   LIG d   1      23.219   0.361  24.911  0.00  0.00     0.039 A 
ATOM      5  C   LIG d   1      22.363  -1.887  25.093  0.00  0.00     0.039 A 
ATOM      6  C   LIG d   1      22.758  -0.697  25.685  0.00  0.00     0.065 A 
ENDROOT
BRANCH   1   7
ATOM      7  N   LIG d   1      22.927  -1.186  21.512  0.00  0.00    -0.328 N 
ATOM      8  C   LIG d   1      24.028  -1.499  20.735  0.00  0.00     0.218 C 
ATOM      9  O   LIG d   1      25.184  -1.651  21.113  0.00  0.00    -0.274 OA
ATOM     10  C   LIG d   1      23.663  -1.647  19.279  0.00  0.00     0.117 C 
ATOM     11  H   LIG d   1      22.042  -1.101  21.029  0.00  0.00     0.169 HD
ENDBRANCH   1   7
BRANCH   6  12
ATOM     12  O   LIG d   1      22.677  -0.604  27.043  0.00  0.00    -0.361 OA
ATOM     13  H   LIG d   1      22.982   0.279  27.309  0.00  0.00     0.217 HD
ENDBRANCH   6  12
TORSDOF 2
ENDMDL
