REMARK  10 active torsions:
REMARK  status: ('A' for Active; 'I' for Inactive)
REMARK       I    between atoms: N_6  and  C_20 
REMARK    1  A    between atoms: N_6  and  C_21 
REMARK    2  A    between atoms: N_6  and  C_24 
REMARK    3  A    between atoms: N_7  and  C_14 
REMARK    4  A    between atoms: N_7  and  C_22 
REMARK    5  A    between atoms: N_9  and  C_35 
REMARK    6  A    between atoms: C_12  and  C_14 
REMARK    7  A    between atoms: C_15  and  C_20 
REMARK    8  A    between atoms: C_21  and  C_23 
REMARK    9  A    between atoms: C_23  and  C_31 
REMARK   10  A    between atoms: C_30  and  C_35 
ROOT
ATOM      1  N   LIG d   1       5.020   0.738  -4.821  0.00  0.00    -0.337 N 
ATOM      2  N   LIG d   1       3.701  -1.035  -5.010  0.00  0.00    -0.232 NA
ATOM      3  C   LIG d   1       4.130   0.829  -3.776  0.00  0.00     0.064 A 
ATOM      4  C   LIG d   1       4.692  -0.369  -5.573  0.00  0.00     0.120 A 
ATOM      5  C   LIG d   1       3.343  -0.314  -3.897  0.00  0.00     0.086 A 
ATOM      6  C   LIG d   1       2.136   0.347  -1.912  0.00  0.00     0.035 A 
ATOM      7  C   LIG d   1       2.353  -0.585  -2.941  0.00  0.00     0.051 A 
ATOM      8  C   LIG d   1       3.954   1.760  -2.746  0.00  0.00     0.033 A 
ATOM      9  C   LIG d   1       2.938   1.496  -1.821  0.00  0.00     0.019 A 
ATOM     10  C   LIG d   1       6.130   1.625  -5.069  0.00  0.00     0.158 C 
ENDROOT
BRANCH   4  11
ATOM     11  C   LIG d   1       5.389  -0.771  -6.841  0.00  0.00     0.171 C 
BRANCH  11  12
ATOM     12  N   LIG d   1       6.258  -1.933  -6.665  0.00  0.00    -0.286 NA
ATOM     13  H   LIG d   1       5.790  -2.612  -6.060  0.00  0.00     0.128 HD
BRANCH  12  14
ATOM     14  C   LIG d   1       6.806  -2.547  -7.798  0.00  0.00     0.008 A 
ATOM     15  C   LIG d   1       7.176  -1.840  -8.949  0.00  0.00     0.024 A 
ATOM     16  C   LIG d   1       7.798  -2.481 -10.029  0.00  0.00     0.017 A 
ATOM     17  C   LIG d   1       8.088  -3.848  -9.966  0.00  0.00     0.009 A 
ATOM     18  C   LIG d   1       7.774  -4.553  -8.803  0.00  0.00     0.017 A 
ATOM     19  C   LIG d   1       7.151  -3.904  -7.731  0.00  0.00     0.024 A 
BRANCH  17  20
ATOM     20  C   LIG d   1       8.719  -4.543 -11.114  0.00  0.00     0.123 C 
ATOM     21  N   LIG d   1       9.587  -5.505 -10.880  0.00  0.00    -0.284 NA
ATOM     22  H   LIG d   1       9.988  -5.946 -11.716  0.00  0.00     0.188 HD
BRANCH  20  23
ATOM     23  N   LIG d   1       8.441  -4.260 -12.326  0.00  0.00    -0.384 N 
ATOM     24  H   LIG d   1       8.912  -4.798 -13.045  0.00  0.00     0.157 HD
ATOM     25  H   LIG d   1       7.745  -3.568 -12.570  0.00  0.00     0.157 HD
ENDBRANCH  20  23
ENDBRANCH  17  20
ENDBRANCH  12  14
ENDBRANCH  11  12
ENDBRANCH   4  11
BRANCH   6  26
ATOM     26  C   LIG d   1       1.147   0.101  -0.820  0.00  0.00     0.259 C 
ATOM     27  O   LIG d   1       1.475   0.482   0.309  0.00  0.00    -0.267 OA
ATOM     28  N   LIG d   1      -0.029  -0.620  -1.071  0.00  0.00    -0.298 N 
BRANCH  28  29
ATOM     29  C   LIG d   1      -0.706  -1.218   0.093  0.00  0.00     0.144 C 
BRANCH  29  30
ATOM     30  C   LIG d   1      -0.002  -2.462   0.623  0.00  0.00     0.133 C 
BRANCH  30  31
ATOM     31  C   LIG d   1      -0.528  -3.761   0.035  0.00  0.00     0.174 C 
ATOM     32  O   LIG d   1       0.344  -4.655  -0.152  0.00  0.00    -0.648 OA
ATOM     33  O   LIG d   1      -1.773  -3.812  -0.172  0.00  0.00    -0.648 OA
ENDBRANCH  30  31
ENDBRANCH  29  30
ENDBRANCH  28  29
BRANCH  28  34
ATOM     34  C   LIG d   1      -0.747  -0.499  -2.298  0.00  0.00     0.132 A 
ATOM     35  N   LIG d   1      -0.492   0.576  -3.086  0.00  0.00    -0.243 NA
ATOM     36  C   LIG d   1      -1.179   0.701  -4.243  0.00  0.00     0.119 A 
ATOM     37  C   LIG d   1      -2.135  -0.197  -4.676  0.00  0.00     0.019 A 
ATOM     38  C   LIG d   1      -2.396  -1.294  -3.872  0.00  0.00     0.005 A 
ATOM     39  C   LIG d   1      -1.698  -1.446  -2.674  0.00  0.00     0.051 A 
ENDBRANCH  28  34
ENDBRANCH   6  26
TORSDOF 10
