REMARK  11 active torsions:
REMARK  status: ('A' for Active; 'I' for Inactive)
REMARK    1  A    between atoms: O_2  and  C_17 
REMARK    2  A    between atoms: O_2  and  C_19 
REMARK    3  A    between atoms: O_3  and  C_13 
REMARK    4  A    between atoms: O_4  and  C_14 
REMARK    5  A    between atoms: O_5  and  C_15 
REMARK    6  A    between atoms: O_6  and  C_18 
REMARK    7  A    between atoms: O_8  and  C_21 
REMARK    8  A    between atoms: O_11  and  C_30 
REMARK    9  A    between atoms: O_12  and  C_33 
REMARK   10  A    between atoms: C_16  and  C_18 
REMARK   11  A    between atoms: C_22  and  C_25 
ROOT
ATOM      1  C   UNK d   1       2.423   0.950   0.990  0.00  0.00     0.106 A 
ATOM      2  C   UNK d   1       3.217  -0.212   0.933  0.00  0.00     0.054 A 
ATOM      3  C   UNK d   1       3.047   2.209   1.016  0.00  0.00     0.101 A 
ATOM      4  C   UNK d   1       4.624  -0.162   0.957  0.00  0.00     0.001 A 
ATOM      5  C   UNK d   1       4.441   2.276   1.017  0.00  0.00     0.040 A 
ATOM      6  C   UNK d   1       5.213   1.109   0.998  0.00  0.00     0.017 A 
ENDROOT
BRANCH   1   7
ATOM      7  O   UNK d   1       1.046   0.953   1.033  0.00  0.00    -0.315 OA
BRANCH   7   8
ATOM      8  C   UNK d   1       0.373  -0.309   1.066  0.00  0.00     0.299 C 
ATOM      9  O   UNK d   1       0.364  -0.880  -0.245  0.00  0.00    -0.340 OA
ATOM     10  C   UNK d   1      -0.229  -2.170  -0.312  0.00  0.00     0.253 C 
ATOM     11  C   UNK d   1      -1.693  -2.111   0.130  0.00  0.00     0.189 C 
ATOM     12  C   UNK d   1      -1.796  -1.462   1.511  0.00  0.00     0.183 C 
ATOM     13  C   UNK d   1      -1.078  -0.109   1.556  0.00  0.00     0.205 C 
BRANCH  10  14
ATOM     14  C   UNK d   1      -0.151  -2.736  -1.741  0.00  0.00     0.172 C 
ATOM     15  O   UNK d   1       0.436  -2.214  -2.675  0.00  0.00    -0.648 OA
BRANCH  14  16
ATOM     16  O   UNK d   1      -0.766  -3.941  -1.876  0.00  0.00    -0.774 OA
ATOM     17  H   UNK d   1      -1.275  -4.196  -1.070  0.00  0.00     0.167 HD
ENDBRANCH  14  16
ENDBRANCH  10  14
BRANCH  11  18
ATOM     18  O   UNK d   1      -2.237  -3.444   0.204  0.00  0.00    -0.390 OA
ATOM     19  H   UNK d   1      -3.195  -3.326   0.379  0.00  0.00     0.210 HD
ENDBRANCH  11  18
BRANCH  12  20
ATOM     20  O   UNK d   1      -3.181  -1.297   1.858  0.00  0.00    -0.390 OA
ATOM     21  H   UNK d   1      -3.432  -2.060   2.411  0.00  0.00     0.210 HD
ENDBRANCH  12  20
BRANCH  13  22
ATOM     22  O   UNK d   1      -1.120   0.357   2.915  0.00  0.00    -0.388 OA
ATOM     23  H   UNK d   1      -2.065   0.495   3.117  0.00  0.00     0.210 HD
ENDBRANCH  13  22
ENDBRANCH   7   8
ENDBRANCH   1   7
BRANCH   3  24
ATOM     24  O   UNK d   1       2.226   3.309   1.046  0.00  0.00    -0.353 OA
ATOM     25  C   UNK d   1       2.850   4.587   1.003  0.00  0.00     0.210 C 
ENDBRANCH   3  24
BRANCH   4  26
ATOM     26  C   UNK d   1       5.431  -1.420   0.959  0.00  0.00     0.090 A 
ATOM     27  O   UNK d   1       4.682  -2.592   0.988  0.00  0.00    -0.309 OA
ATOM     28  C   UNK d   1       5.334  -3.802   0.996  0.00  0.00     0.095 A 
ATOM     29  C   UNK d   1       6.725  -3.928   0.996  0.00  0.00     0.081 A 
ATOM     30  C   UNK d   1       4.526  -4.941   1.007  0.00  0.00     0.075 A 
ATOM     31  C   UNK d   1       7.523  -2.687   0.986  0.00  0.00     0.190 A 
ATOM     32  C   UNK d   1       7.302  -5.207   1.005  0.00  0.00     0.085 A 
ATOM     33  O   UNK d   1       8.746  -2.643   1.008  0.00  0.00    -0.287 OA
ATOM     34  C   UNK d   1       6.771  -1.422   0.954  0.00  0.00     0.094 A 
ATOM     35  C   UNK d   1       6.496  -6.349   1.015  0.00  0.00     0.074 A 
ATOM     36  C   UNK d   1       5.112  -6.202   1.017  0.00  0.00     0.071 A 
BRANCH  32  37
ATOM     37  O   UNK d   1       8.659  -5.360   1.005  0.00  0.00    -0.360 OA
ATOM     38  H   UNK d   1       8.905  -6.297   0.988  0.00  0.00     0.217 HD
ENDBRANCH  32  37
BRANCH  36  39
ATOM     39  O   UNK d   1       4.285  -7.286   1.029  0.00  0.00    -0.361 OA
ATOM     40  H   UNK d   1       4.819  -8.098   1.000  0.00  0.00     0.217 HD
ENDBRANCH  36  39
ENDBRANCH   4  26
TORSDOF 11
