REMARK  2 active torsions:
REMARK  status: ('A' for Active; 'I' for Inactive)
REMARK    1  A    between atoms: O_1  and  C_9 
REMARK    2  A    between atoms: N_3  and  C_4 
REMARK       I    between atoms: N_3  and  C_10 
ROOT
ATOM      1  C   LIG d   1      -0.026   2.268  -2.445  0.00  0.00     0.034 A 
ATOM      2  C   LIG d   1       0.255   2.439  -1.087  0.00  0.00     0.032 A 
ATOM      3  C   LIG d   1      -0.004   0.974  -2.983  0.00  0.00     0.032 A 
ATOM      4  C   LIG d   1       0.552   1.337  -0.277  0.00  0.00     0.039 A 
ATOM      5  C   LIG d   1       0.292  -0.128  -2.176  0.00  0.00     0.039 A 
ATOM      6  C   LIG d   1       0.568   0.062  -0.830  0.00  0.00     0.065 A 
ENDROOT
BRANCH   1   7
ATOM      7  N   LIG d   1      -0.336   3.325  -3.325  0.00  0.00    -0.328 N 
ATOM      8  C   LIG d   1      -0.416   4.674  -3.027  0.00  0.00     0.218 C 
ATOM      9  O   LIG d   1      -0.229   5.206  -1.939  0.00  0.00    -0.274 OA
ATOM     10  C   LIG d   1      -0.781   5.494  -4.239  0.00  0.00     0.117 C 
ATOM     11  H   LIG d   1      -0.521   3.062  -4.284  0.00  0.00     0.169 HD
ENDBRANCH   1   7
BRANCH   6  12
ATOM     12  O   LIG d   1       0.852  -1.038  -0.077  0.00  0.00    -0.361 OA
ATOM     13  H   LIG d   1       1.020  -0.751   0.836  0.00  0.00     0.217 HD
ENDBRANCH   6  12
TORSDOF 2
