REMARK  8 active torsions:
REMARK  status: ('A' for Active; 'I' for Inactive)
REMARK    1  A    between atoms: S_1  and  N_7 
REMARK    2  A    between atoms: S_1  and  C_11 
REMARK    3  A    between atoms: O_4  and  C_22 
REMARK    4  A    between atoms: N_7  and  C_17 
REMARK    5  A    between atoms: N_8  and  N_10 
REMARK    6  A    between atoms: N_8  and  C_14 
REMARK    7  A    between atoms: N_10  and  C_18 
REMARK    8  A    between atoms: C_20  and  C_28 
ROOT
ATOM      1  C   LIG d   1       2.014  -0.212  -0.014  0.00  0.00     0.075 A 
ATOM      2  C   LIG d   1       2.867   0.486   0.838  0.00  0.00     0.027 A 
ATOM      3  C   LIG d   1       2.526  -1.087  -0.971  0.00  0.00     0.027 A 
ATOM      4  C   LIG d   1       4.804  -0.522  -0.273  0.00  0.00     0.079 A 
ATOM      5  C   LIG d   1       4.249   0.329   0.696  0.00  0.00     0.035 A 
ATOM      6  C   LIG d   1       3.910  -1.224  -1.095  0.00  0.00     0.035 A 
ENDROOT
BRANCH   4   7
ATOM      7  N   LIG d   1       6.129  -0.697  -0.488  0.00  0.00    -0.150 NA
BRANCH   7   8
ATOM      8  N   LIG d   1       7.014  -0.332   0.645  0.00  0.00    -0.150 NA
BRANCH   8   9
ATOM      9  C   LIG d   1       8.350  -0.507   0.432  0.00  0.00     0.080 A 
ATOM     10  C   LIG d   1       9.244  -0.500   1.538  0.00  0.00     0.054 A 
ATOM     11  C   LIG d   1      10.648  -0.668   1.413  0.00  0.00     0.076 A 
ATOM     12  C   LIG d   1      11.156  -0.839   0.114  0.00  0.00     0.082 A 
ATOM     13  C   LIG d   1      10.319  -0.843  -0.996  0.00  0.00     0.040 A 
ATOM     14  C   LIG d   1       8.938  -0.678  -0.831  0.00  0.00     0.036 A 
BRANCH  11  15
ATOM     15  C   LIG d   1      11.578  -0.667   2.612  0.00  0.00     0.212 C 
ATOM     16  O   LIG d   1      12.828  -0.851   2.353  0.00  0.00    -0.644 OA
ATOM     17  O   LIG d   1      11.130  -0.485   3.791  0.00  0.00    -0.644 OA
ENDBRANCH  11  15
BRANCH  12  18
ATOM     18  O   LIG d   1      12.504  -1.012  -0.122  0.00  0.00    -0.360 OA
ATOM     19  H   LIG d   1      12.899  -0.991   0.791  0.00  0.00     0.217 HD
ENDBRANCH  12  18
ENDBRANCH   8   9
ENDBRANCH   7   8
ENDBRANCH   4   7
BRANCH   1  20
ATOM     20  S   LIG d   1       0.266   0.005   0.104  0.00  0.00     0.247 S 
ATOM     21  O   LIG d   1      -0.386  -1.217  -0.335  0.00  0.00    -0.205 OA
ATOM     22  O   LIG d   1      -0.085   0.576   1.391  0.00  0.00    -0.205 OA
BRANCH  20  23
ATOM     23  N   LIG d   1      -0.072   1.151  -1.111  0.00  0.00    -0.165 NA
ATOM     24  H   LIG d   1       0.284   0.773  -1.990  0.00  0.00     0.147 HD
BRANCH  23  25
ATOM     25  C   LIG d   1       0.558   2.404  -0.943  0.00  0.00     0.116 C 
ATOM     26  N   LIG d   1       1.410   2.658  -1.947  0.00  0.00    -0.248 NA
ATOM     27  C   LIG d   1       2.162   3.772  -1.819  0.00  0.00     0.118 C 
ATOM     28  C   LIG d   1       2.007   4.691  -0.792  0.00  0.00     0.019 C 
ATOM     29  C   LIG d   1       1.038   4.443   0.175  0.00  0.00     0.005 C 
ATOM     30  C   LIG d   1       0.295   3.270   0.103  0.00  0.00     0.045 C 
ENDBRANCH  23  25
ENDBRANCH  20  23
ENDBRANCH   1  20
TORSDOF 8
