MODEL 1
REMARK minimizedAffinity -8.45456123REMARK CNNscore 0.450835735REMARK CNNaffinity 5.08382368REMARK  15 active torsions:
REMARK  status: ('A' for Active; 'I' for Inactive)
REMARK    1  A    between atoms: O_2  and  C_21 
REMARK    2  A    between atoms: O_2  and  C_25 
REMARK    3  A    between atoms: O_4  and  C_17 
REMARK    4  A    between atoms: O_5  and  C_24 
REMARK    5  A    between atoms: O_5  and  C_28 
REMARK    6  A    between atoms: O_6  and  C_18 
REMARK    7  A    between atoms: O_7  and  C_19 
REMARK    8  A    between atoms: O_8  and  C_20 
REMARK    9  A    between atoms: O_9  and  C_22 
REMARK   10  A    between atoms: O_10  and  C_23 
REMARK   11  A    between atoms: O_12  and  C_35 
REMARK   12  A    between atoms: O_14  and  C_42 
REMARK   13  A    between atoms: O_15  and  C_40 
REMARK   14  A    between atoms: C_16  and  C_25 
REMARK   15  A    between atoms: C_33  and  C_37 
ROOT
ATOM      1  O   UNK d   1       7.231  16.394   0.825  0.00  0.00    -0.348 OA
ATOM      2  C   UNK d   1       7.995  17.391   1.511  0.00  0.00     0.180 C 
ATOM      3  C   UNK d   1       9.480  16.991   1.494  0.00  0.00     0.180 C 
ATOM      4  C   UNK d   1       9.649  15.591   2.090  0.00  0.00     0.183 C 
ATOM      5  C   UNK d   1       8.731  14.578   1.400  0.00  0.00     0.205 C 
ATOM      6  C   UNK d   1       7.284  15.106   1.440  0.00  0.00     0.298 C 
ENDROOT
BRANCH   6   7
ATOM      7  O   UNK d   1       6.446  14.205   0.703  0.00  0.00    -0.318 OA
BRANCH   7   8
ATOM      8  C   UNK d   1       5.231  13.885   1.244  0.00  0.00     0.077 A 
ATOM      9  C   UNK d   1       4.992  13.481   2.556  0.00  0.00     0.074 A 
ATOM     10  C   UNK d   1       3.707  13.094   2.955  0.00  0.00     0.089 A 
ATOM     11  O   UNK d   1       3.631  12.620   4.236  0.00  0.00    -0.340 OA
ATOM     12  C   UNK d   1       2.631  13.175   2.069  0.00  0.00     0.076 A 
ATOM     13  C   UNK d   1       2.482  11.827   4.554  0.00  0.00     0.169 C 
ATOM     14  C   UNK d   1       1.188  12.412   4.017  0.00  0.00     0.121 C 
ATOM     15  C   UNK d   1       1.294  12.756   2.560  0.00  0.00     0.167 C 
ATOM     16  O   UNK d   1       0.296  12.739   1.847  0.00  0.00    -0.292 OA
ATOM     17  C   UNK d   1       2.867  13.618   0.763  0.00  0.00     0.085 A 
ATOM     18  C   UNK d   1       4.160  13.960   0.353  0.00  0.00     0.074 A 
BRANCH  13  19
ATOM     19  C   UNK d   1       2.706  10.342   4.275  0.00  0.00    -0.026 A 
ATOM     20  C   UNK d   1       1.674   9.467   3.904  0.00  0.00     0.049 A 
ATOM     21  C   UNK d   1       1.939   8.117   3.649  0.00  0.00     0.099 A 
ATOM     22  C   UNK d   1       3.232   7.594   3.761  0.00  0.00     0.101 A 
ATOM     23  C   UNK d   1       4.263   8.455   4.134  0.00  0.00     0.040 A 
ATOM     24  C   UNK d   1       4.002   9.810   4.387  0.00  0.00     0.012 A 
BRANCH  21  25
ATOM     25  O   UNK d   1       0.913   7.286   3.279  0.00  0.00    -0.358 OA
ATOM     26  H   UNK d   1       0.082   7.783   3.283  0.00  0.00     0.217 HD
ENDBRANCH  21  25
BRANCH  22  27
ATOM     27  O   UNK d   1       3.374   6.261   3.485  0.00  0.00    -0.353 OA
ATOM     28  C   UNK d   1       3.610   5.387   4.578  0.00  0.00     0.210 C 
ENDBRANCH  22  27
ENDBRANCH  13  19
BRANCH  17  29
ATOM     29  O   UNK d   1       1.849  13.711  -0.143  0.00  0.00    -0.360 OA
ATOM     30  H   UNK d   1       2.185  14.014  -1.002  0.00  0.00     0.217 HD
ENDBRANCH  17  29
ENDBRANCH   7   8
ENDBRANCH   6   7
BRANCH   5  31
ATOM     31  O   UNK d   1       8.857  13.319   2.079  0.00  0.00    -0.388 OA
ATOM     32  H   UNK d   1       9.813  13.117   2.072  0.00  0.00     0.210 HD
ENDBRANCH   5  31
BRANCH   2  33
ATOM     33  C   UNK d   1       7.795  18.748   0.809  0.00  0.00     0.205 C 
BRANCH  33  34
ATOM     34  O   UNK d   1       8.586  18.872  -0.379  0.00  0.00    -0.356 OA
BRANCH  34  35
ATOM     35  C   UNK d   1       9.076  20.198  -0.614  0.00  0.00     0.291 C 
ATOM     36  O   UNK d   1      10.058  20.519   0.383  0.00  0.00    -0.351 OA
ATOM     37  C   UNK d   1      10.221  21.906   0.689  0.00  0.00     0.152 C 
ATOM     38  C   UNK d   1       9.871  22.800  -0.505  0.00  0.00     0.178 C 
ATOM     39  C   UNK d   1      11.662  22.089   1.157  0.00  0.00     0.042 C 
ATOM     40  C   UNK d   1       8.384  22.620  -0.849  0.00  0.00     0.183 C 
ATOM     41  C   UNK d   1       7.888  21.185  -0.601  0.00  0.00     0.204 C 
BRANCH  38  42
ATOM     42  O   UNK d   1      10.108  24.188  -0.264  0.00  0.00    -0.390 OA
ATOM     43  H   UNK d   1      11.072  24.326  -0.245  0.00  0.00     0.210 HD
ENDBRANCH  38  42
BRANCH  40  44
ATOM     44  O   UNK d   1       8.184  22.977  -2.234  0.00  0.00    -0.390 OA
ATOM     45  H   UNK d   1       8.499  23.900  -2.311  0.00  0.00     0.210 HD
ENDBRANCH  40  44
BRANCH  41  46
ATOM     46  O   UNK d   1       6.874  20.856  -1.563  0.00  0.00    -0.388 OA
ATOM     47  H   UNK d   1       7.069  21.415  -2.345  0.00  0.00     0.210 HD
ENDBRANCH  41  46
ENDBRANCH  34  35
ENDBRANCH  33  34
ENDBRANCH   2  33
BRANCH   4  48
ATOM     48  O   UNK d   1      11.013  15.156   1.955  0.00  0.00    -0.390 OA
ATOM     49  H   UNK d   1      11.518  15.623   2.647  0.00  0.00     0.210 HD
ENDBRANCH   4  48
BRANCH   3  50
ATOM     50  O   UNK d   1      10.274  17.914   2.242  0.00  0.00    -0.390 OA
ATOM     51  H   UNK d   1      11.189  17.833   1.915  0.00  0.00     0.210 HD
ENDBRANCH   3  50
TORSDOF 15
ENDMDL
MODEL 2
REMARK minimizedAffinity -8.09725666REMARK CNNscore 0.431438863REMARK CNNaffinity 4.65947056REMARK  15 active torsions:
REMARK  status: ('A' for Active; 'I' for Inactive)
REMARK    1  A    between atoms: O_2  and  C_21 
REMARK    2  A    between atoms: O_2  and  C_25 
REMARK    3  A    between atoms: O_4  and  C_17 
REMARK    4  A    between atoms: O_5  and  C_24 
REMARK    5  A    between atoms: O_5  and  C_28 
REMARK    6  A    between atoms: O_6  and  C_18 
REMARK    7  A    between atoms: O_7  and  C_19 
REMARK    8  A    between atoms: O_8  and  C_20 
REMARK    9  A    between atoms: O_9  and  C_22 
REMARK   10  A    between atoms: O_10  and  C_23 
REMARK   11  A    between atoms: O_12  and  C_35 
REMARK   12  A    between atoms: O_14  and  C_42 
REMARK   13  A    between atoms: O_15  and  C_40 
REMARK   14  A    between atoms: C_16  and  C_25 
REMARK   15  A    between atoms: C_33  and  C_37 
ROOT
ATOM      1  O   UNK d   1       0.875 -17.944   6.676  0.00  0.00    -0.348 OA
ATOM      2  C   UNK d   1      -0.246 -17.062   6.800  0.00  0.00     0.180 C 
ATOM      3  C   UNK d   1       0.124 -15.901   7.738  0.00  0.00     0.180 C 
ATOM      4  C   UNK d   1       0.605 -16.451   9.083  0.00  0.00     0.183 C 
ATOM      5  C   UNK d   1       1.729 -17.474   8.896  0.00  0.00     0.205 C 
ATOM      6  C   UNK d   1       1.261 -18.558   7.907  0.00  0.00     0.298 C 
ENDROOT
BRANCH   6   7
ATOM      7  O   UNK d   1       2.352 -19.454   7.656  0.00  0.00    -0.318 OA
BRANCH   7   8
ATOM      8  C   UNK d   1       2.281 -20.707   8.203  0.00  0.00     0.077 A 
ATOM      9  C   UNK d   1       3.184 -21.748   8.002  0.00  0.00     0.074 A 
ATOM     10  C   UNK d   1       2.941 -23.013   8.551  0.00  0.00     0.089 A 
ATOM     11  O   UNK d   1       3.849 -23.970   8.192  0.00  0.00    -0.340 OA
ATOM     12  C   UNK d   1       1.831 -23.233   9.368  0.00  0.00     0.076 A 
ATOM     13  C   UNK d   1       3.435 -25.332   8.351  0.00  0.00     0.169 C 
ATOM     14  C   UNK d   1       2.734 -25.589   9.673  0.00  0.00     0.121 C 
ATOM     15  C   UNK d   1       1.636 -24.596   9.925  0.00  0.00     0.167 C 
ATOM     16  O   UNK d   1       0.667 -24.907  10.609  0.00  0.00    -0.292 OA
ATOM     17  C   UNK d   1       0.945 -22.174   9.600  0.00  0.00     0.085 A 
ATOM     18  C   UNK d   1       1.165 -20.925   9.013  0.00  0.00     0.074 A 
BRANCH  13  19
ATOM     19  C   UNK d   1       2.732 -25.875   7.108  0.00  0.00    -0.026 A 
ATOM     20  C   UNK d   1       1.988 -25.068   6.235  0.00  0.00     0.049 A 
ATOM     21  C   UNK d   1       1.374 -25.617   5.104  0.00  0.00     0.099 A 
ATOM     22  C   UNK d   1       1.473 -26.982   4.811  0.00  0.00     0.101 A 
ATOM     23  C   UNK d   1       2.207 -27.792   5.677  0.00  0.00     0.040 A 
ATOM     24  C   UNK d   1       2.827 -27.245   6.809  0.00  0.00     0.012 A 
BRANCH  21  25
ATOM     25  O   UNK d   1       0.660 -24.805   4.261  0.00  0.00    -0.358 OA
ATOM     26  H   UNK d   1       0.652 -23.904   4.616  0.00  0.00     0.217 HD
ENDBRANCH  21  25
BRANCH  22  27
ATOM     27  O   UNK d   1       0.835 -27.408   3.678  0.00  0.00    -0.353 OA
ATOM     28  C   UNK d   1      -0.221 -28.345   3.833  0.00  0.00     0.210 C 
ENDBRANCH  22  27
ENDBRANCH  13  19
BRANCH  17  29
ATOM     29  O   UNK d   1      -0.159 -22.340  10.388  0.00  0.00    -0.360 OA
ATOM     30  H   UNK d   1      -0.674 -21.518  10.428  0.00  0.00     0.217 HD
ENDBRANCH  17  29
ENDBRANCH   7   8
ENDBRANCH   6   7
BRANCH   5  31
ATOM     31  O   UNK d   1       2.053 -18.029  10.180  0.00  0.00    -0.388 OA
ATOM     32  H   UNK d   1       2.252 -17.262  10.751  0.00  0.00     0.210 HD
ENDBRANCH   5  31
BRANCH   2  33
ATOM     33  C   UNK d   1      -0.621 -16.529   5.404  0.00  0.00     0.205 C 
BRANCH  33  34
ATOM     34  O   UNK d   1       0.313 -16.931   4.395  0.00  0.00    -0.356 OA
BRANCH  34  35
ATOM     35  C   UNK d   1      -0.301 -17.342   3.168  0.00  0.00     0.291 C 
ATOM     36  O   UNK d   1      -0.030 -18.735   2.950  0.00  0.00    -0.351 OA
ATOM     37  C   UNK d   1      -0.025 -19.176   1.590  0.00  0.00     0.152 C 
ATOM     38  C   UNK d   1      -0.943 -18.321   0.709  0.00  0.00     0.178 C 
ATOM     39  C   UNK d   1      -0.426 -20.647   1.600  0.00  0.00     0.042 C 
ATOM     40  C   UNK d   1      -0.413 -16.878   0.683  0.00  0.00     0.183 C 
ATOM     41  C   UNK d   1       0.228 -16.458   2.017  0.00  0.00     0.204 C 
BRANCH  38  42
ATOM     42  O   UNK d   1      -1.032 -18.787  -0.639  0.00  0.00    -0.390 OA
ATOM     43  H   UNK d   1      -1.547 -19.613  -0.634  0.00  0.00     0.210 HD
ENDBRANCH  38  42
BRANCH  40  44
ATOM     44  O   UNK d   1      -1.508 -15.991   0.363  0.00  0.00    -0.390 OA
ATOM     45  H   UNK d   1      -1.849 -16.302  -0.499  0.00  0.00     0.210 HD
ENDBRANCH  40  44
BRANCH  41  46
ATOM     46  O   UNK d   1       0.005 -15.057   2.236  0.00  0.00    -0.388 OA
ATOM     47  H   UNK d   1      -0.820 -14.848   1.748  0.00  0.00     0.210 HD
ENDBRANCH  41  46
ENDBRANCH  34  35
ENDBRANCH  33  34
ENDBRANCH   2  33
BRANCH   4  48
ATOM     48  O   UNK d   1       1.079 -15.379   9.917  0.00  0.00    -0.390 OA
ATOM     49  H   UNK d   1       0.286 -14.934  10.266  0.00  0.00     0.210 HD
ENDBRANCH   4  48
BRANCH   3  50
ATOM     50  O   UNK d   1      -0.993 -15.038   7.961  0.00  0.00    -0.390 OA
ATOM     51  H   UNK d   1      -0.635 -14.176   8.240  0.00  0.00     0.210 HD
ENDBRANCH   3  50
TORSDOF 15
ENDMDL
MODEL 3
REMARK minimizedAffinity -7.84833717REMARK CNNscore 0.422860801REMARK CNNaffinity 4.77461004REMARK  15 active torsions:
REMARK  status: ('A' for Active; 'I' for Inactive)
REMARK    1  A    between atoms: O_2  and  C_21 
REMARK    2  A    between atoms: O_2  and  C_25 
REMARK    3  A    between atoms: O_4  and  C_17 
REMARK    4  A    between atoms: O_5  and  C_24 
REMARK    5  A    between atoms: O_5  and  C_28 
REMARK    6  A    between atoms: O_6  and  C_18 
REMARK    7  A    between atoms: O_7  and  C_19 
REMARK    8  A    between atoms: O_8  and  C_20 
REMARK    9  A    between atoms: O_9  and  C_22 
REMARK   10  A    between atoms: O_10  and  C_23 
REMARK   11  A    between atoms: O_12  and  C_35 
REMARK   12  A    between atoms: O_14  and  C_42 
REMARK   13  A    between atoms: O_15  and  C_40 
REMARK   14  A    between atoms: C_16  and  C_25 
REMARK   15  A    between atoms: C_33  and  C_37 
ROOT
ATOM      1  O   UNK d   1      21.181 -21.561   8.788  0.00  0.00    -0.348 OA
ATOM      2  C   UNK d   1      20.041 -21.650   7.928  0.00  0.00     0.180 C 
ATOM      3  C   UNK d   1      20.062 -20.474   6.937  0.00  0.00     0.180 C 
ATOM      4  C   UNK d   1      20.134 -19.149   7.701  0.00  0.00     0.183 C 
ATOM      5  C   UNK d   1      21.303 -19.142   8.691  0.00  0.00     0.205 C 
ATOM      6  C   UNK d   1      21.200 -20.384   9.597  0.00  0.00     0.298 C 
ENDROOT
BRANCH   6   7
ATOM      7  O   UNK d   1      22.352 -20.426  10.451  0.00  0.00    -0.318 OA
BRANCH   7   8
ATOM      8  C   UNK d   1      22.145 -20.680  11.779  0.00  0.00     0.077 A 
ATOM      9  C   UNK d   1      23.001 -21.375  12.630  0.00  0.00     0.074 A 
ATOM     10  C   UNK d   1      22.623 -21.644  13.951  0.00  0.00     0.089 A 
ATOM     11  O   UNK d   1      23.507 -22.424  14.645  0.00  0.00    -0.340 OA
ATOM     12  C   UNK d   1      21.418 -21.159  14.460  0.00  0.00     0.076 A 
ATOM     13  C   UNK d   1      22.998 -23.079  15.812  0.00  0.00     0.169 C 
ATOM     14  C   UNK d   1      22.139 -22.173  16.676  0.00  0.00     0.121 C 
ATOM     15  C   UNK d   1      21.081 -21.474  15.871  0.00  0.00     0.167 C 
ATOM     16  O   UNK d   1      20.025 -21.140  16.397  0.00  0.00    -0.292 OA
ATOM     17  C   UNK d   1      20.576 -20.427  13.614  0.00  0.00     0.085 A 
ATOM     18  C   UNK d   1      20.935 -20.199  12.282  0.00  0.00     0.074 A 
BRANCH  13  19
ATOM     19  C   UNK d   1      22.407 -24.452  15.496  0.00  0.00    -0.026 A 
ATOM     20  C   UNK d   1      21.508 -25.114  16.346  0.00  0.00     0.049 A 
ATOM     21  C   UNK d   1      20.988 -26.366  16.001  0.00  0.00     0.099 A 
ATOM     22  C   UNK d   1      21.350 -27.001  14.808  0.00  0.00     0.101 A 
ATOM     23  C   UNK d   1      22.247 -26.354  13.959  0.00  0.00     0.040 A 
ATOM     24  C   UNK d   1      22.767 -25.096  14.300  0.00  0.00     0.012 A 
BRANCH  21  25
ATOM     25  O   UNK d   1      20.104 -26.987  16.845  0.00  0.00    -0.358 OA
ATOM     26  H   UNK d   1      19.985 -26.444  17.638  0.00  0.00     0.217 HD
ENDBRANCH  21  25
BRANCH  22  27
ATOM     27  O   UNK d   1      20.778 -28.223  14.572  0.00  0.00    -0.353 OA
ATOM     28  C   UNK d   1      20.078 -28.394  13.349  0.00  0.00     0.210 C 
ENDBRANCH  22  27
ENDBRANCH  13  19
BRANCH  17  29
ATOM     29  O   UNK d   1      19.384 -19.934  14.062  0.00  0.00    -0.360 OA
ATOM     30  H   UNK d   1      18.918 -19.471  13.348  0.00  0.00     0.217 HD
ENDBRANCH  17  29
ENDBRANCH   7   8
ENDBRANCH   6   7
BRANCH   5  31
ATOM     31  O   UNK d   1      21.244 -17.924   9.450  0.00  0.00    -0.388 OA
ATOM     32  H   UNK d   1      21.230 -17.207   8.786  0.00  0.00     0.210 HD
ENDBRANCH   5  31
BRANCH   2  33
ATOM     33  C   UNK d   1      20.086 -22.992   7.172  0.00  0.00     0.205 C 
BRANCH  33  34
ATOM     34  O   UNK d   1      20.185 -22.819   5.753  0.00  0.00    -0.356 OA
BRANCH  34  35
ATOM     35  C   UNK d   1      19.122 -23.438   5.018  0.00  0.00     0.291 C 
ATOM     36  O   UNK d   1      18.396 -24.316   5.892  0.00  0.00    -0.351 OA
ATOM     37  C   UNK d   1      17.728 -25.417   5.272  0.00  0.00     0.152 C 
ATOM     38  C   UNK d   1      17.327 -25.103   3.826  0.00  0.00     0.178 C 
ATOM     39  C   UNK d   1      16.530 -25.760   6.152  0.00  0.00     0.042 C 
ATOM     40  C   UNK d   1      18.596 -24.861   2.994  0.00  0.00     0.183 C 
ATOM     41  C   UNK d   1      19.716 -24.184   3.803  0.00  0.00     0.204 C 
BRANCH  38  42
ATOM     42  O   UNK d   1      16.578 -26.149   3.205  0.00  0.00    -0.390 OA
ATOM     43  H   UNK d   1      15.693 -26.163   3.611  0.00  0.00     0.210 HD
ENDBRANCH  38  42
BRANCH  40  44
ATOM     44  O   UNK d   1      18.251 -24.045   1.853  0.00  0.00    -0.390 OA
ATOM     45  H   UNK d   1      17.557 -24.545   1.379  0.00  0.00     0.210 HD
ENDBRANCH  40  44
BRANCH  41  46
ATOM     46  O   UNK d   1      20.481 -23.330   2.939  0.00  0.00    -0.388 OA
ATOM     47  H   UNK d   1      19.865 -23.069   2.222  0.00  0.00     0.210 HD
ENDBRANCH  41  46
ENDBRANCH  34  35
ENDBRANCH  33  34
ENDBRANCH   2  33
BRANCH   4  48
ATOM     48  O   UNK d   1      20.290 -18.054   6.783  0.00  0.00    -0.390 OA
ATOM     49  H   UNK d   1      19.410 -17.899   6.392  0.00  0.00     0.210 HD
ENDBRANCH   4  48
BRANCH   3  50
ATOM     50  O   UNK d   1      18.896 -20.471   6.110  0.00  0.00    -0.390 OA
ATOM     51  H   UNK d   1      19.117 -19.964   5.308  0.00  0.00     0.210 HD
ENDBRANCH   3  50
TORSDOF 15
ENDMDL
MODEL 4
REMARK minimizedAffinity -7.40500689REMARK CNNscore 0.415236324REMARK CNNaffinity 4.96001339REMARK  15 active torsions:
REMARK  status: ('A' for Active; 'I' for Inactive)
REMARK    1  A    between atoms: O_2  and  C_21 
REMARK    2  A    between atoms: O_2  and  C_25 
REMARK    3  A    between atoms: O_4  and  C_17 
REMARK    4  A    between atoms: O_5  and  C_24 
REMARK    5  A    between atoms: O_5  and  C_28 
REMARK    6  A    between atoms: O_6  and  C_18 
REMARK    7  A    between atoms: O_7  and  C_19 
REMARK    8  A    between atoms: O_8  and  C_20 
REMARK    9  A    between atoms: O_9  and  C_22 
REMARK   10  A    between atoms: O_10  and  C_23 
REMARK   11  A    between atoms: O_12  and  C_35 
REMARK   12  A    between atoms: O_14  and  C_42 
REMARK   13  A    between atoms: O_15  and  C_40 
REMARK   14  A    between atoms: C_16  and  C_25 
REMARK   15  A    between atoms: C_33  and  C_37 
ROOT
ATOM      1  O   UNK d   1      10.028  19.863   4.374  0.00  0.00    -0.348 OA
ATOM      2  C   UNK d   1      10.171  18.517   4.843  0.00  0.00     0.180 C 
ATOM      3  C   UNK d   1      11.662  18.220   5.075  0.00  0.00     0.180 C 
ATOM      4  C   UNK d   1      12.454  18.496   3.795  0.00  0.00     0.183 C 
ATOM      5  C   UNK d   1      12.184  19.908   3.267  0.00  0.00     0.205 C 
ATOM      6  C   UNK d   1      10.663  20.104   3.118  0.00  0.00     0.298 C 
ENDROOT
BRANCH   6   7
ATOM      7  O   UNK d   1      10.411  21.460   2.724  0.00  0.00    -0.318 OA
BRANCH   7   8
ATOM      8  C   UNK d   1       9.682  21.662   1.583  0.00  0.00     0.077 A 
ATOM      9  C   UNK d   1       9.572  22.856   0.875  0.00  0.00     0.074 A 
ATOM     10  C   UNK d   1       8.715  22.948  -0.229  0.00  0.00     0.089 A 
ATOM     11  O   UNK d   1       8.620  24.201  -0.768  0.00  0.00    -0.340 OA
ATOM     12  C   UNK d   1       8.015  21.829  -0.683  0.00  0.00     0.076 A 
ATOM     13  C   UNK d   1       7.474  24.456  -1.589  0.00  0.00     0.169 C 
ATOM     14  C   UNK d   1       7.173  23.325  -2.557  0.00  0.00     0.121 C 
ATOM     15  C   UNK d   1       7.130  21.994  -1.864  0.00  0.00     0.167 C 
ATOM     16  O   UNK d   1       6.433  21.088  -2.308  0.00  0.00    -0.292 OA
ATOM     17  C   UNK d   1       8.158  20.620   0.007  0.00  0.00     0.085 A 
ATOM     18  C   UNK d   1       8.978  20.542   1.137  0.00  0.00     0.074 A 
BRANCH  13  19
ATOM     19  C   UNK d   1       6.285  24.974  -0.782  0.00  0.00    -0.026 A 
ATOM     20  C   UNK d   1       4.952  24.796  -1.181  0.00  0.00     0.049 A 
ATOM     21  C   UNK d   1       3.900  25.282  -0.396  0.00  0.00     0.099 A 
ATOM     22  C   UNK d   1       4.141  25.966   0.801  0.00  0.00     0.101 A 
ATOM     23  C   UNK d   1       5.463  26.153   1.202  0.00  0.00     0.040 A 
ATOM     24  C   UNK d   1       6.519  25.663   0.420  0.00  0.00     0.012 A 
BRANCH  21  25
ATOM     25  O   UNK d   1       2.606  25.086  -0.804  0.00  0.00    -0.358 OA
ATOM     26  H   UNK d   1       2.606  24.635  -1.661  0.00  0.00     0.217 HD
ENDBRANCH  21  25
BRANCH  22  27
ATOM     27  O   UNK d   1       3.036  26.395   1.487  0.00  0.00    -0.353 OA
ATOM     28  C   UNK d   1       2.758  25.776   2.734  0.00  0.00     0.210 C 
ENDBRANCH  22  27
ENDBRANCH  13  19
BRANCH  17  29
ATOM     29  O   UNK d   1       7.491  19.497  -0.393  0.00  0.00    -0.360 OA
ATOM     30  H   UNK d   1       7.685  18.756   0.202  0.00  0.00     0.217 HD
ENDBRANCH  17  29
ENDBRANCH   7   8
ENDBRANCH   6   7
BRANCH   5  31
ATOM     31  O   UNK d   1      12.865  20.060   2.012  0.00  0.00    -0.388 OA
ATOM     32  H   UNK d   1      13.798  19.834   2.196  0.00  0.00     0.210 HD
ENDBRANCH   5  31
BRANCH   2  33
ATOM     33  C   UNK d   1       9.379  18.356   6.154  0.00  0.00     0.205 C 
BRANCH  33  34
ATOM     34  O   UNK d   1      10.200  18.531   7.315  0.00  0.00    -0.356 OA
BRANCH  34  35
ATOM     35  C   UNK d   1       9.944  17.578   8.355  0.00  0.00     0.291 C 
ATOM     36  O   UNK d   1       8.982  18.126   9.268  0.00  0.00    -0.351 OA
ATOM     37  C   UNK d   1       9.032  17.638  10.611  0.00  0.00     0.152 C 
ATOM     38  C   UNK d   1       9.580  16.209  10.680  0.00  0.00     0.178 C 
ATOM     39  C   UNK d   1       7.620  17.754  11.177  0.00  0.00     0.042 C 
ATOM     40  C   UNK d   1      11.032  16.202  10.178  0.00  0.00     0.183 C 
ATOM     41  C   UNK d   1      11.276  17.224   9.053  0.00  0.00     0.204 C 
BRANCH  38  42
ATOM     42  O   UNK d   1       9.561  15.657  11.997  0.00  0.00    -0.390 OA
ATOM     43  H   UNK d   1       8.633  15.478  12.232  0.00  0.00     0.210 HD
ENDBRANCH  38  42
BRANCH  40  44
ATOM     44  O   UNK d   1      11.353  14.873   9.712  0.00  0.00    -0.390 OA
ATOM     45  H   UNK d   1      11.198  14.286  10.479  0.00  0.00     0.210 HD
ENDBRANCH  40  44
BRANCH  41  46
ATOM     46  O   UNK d   1      12.267  16.714   8.149  0.00  0.00    -0.388 OA
ATOM     47  H   UNK d   1      12.203  15.738   8.220  0.00  0.00     0.210 HD
ENDBRANCH  41  46
ENDBRANCH  34  35
ENDBRANCH  33  34
ENDBRANCH   2  33
BRANCH   4  48
ATOM     48  O   UNK d   1      13.864  18.349   4.042  0.00  0.00    -0.390 OA
ATOM     49  H   UNK d   1      14.038  17.390   4.065  0.00  0.00     0.210 HD
ENDBRANCH   4  48
BRANCH   3  50
ATOM     50  O   UNK d   1      11.865  16.859   5.463  0.00  0.00    -0.390 OA
ATOM     51  H   UNK d   1      12.721  16.819   5.927  0.00  0.00     0.210 HD
ENDBRANCH   3  50
TORSDOF 15
ENDMDL
MODEL 5
REMARK minimizedAffinity -7.47097015REMARK CNNscore 0.35561803REMARK CNNaffinity 4.50841045REMARK  15 active torsions:
REMARK  status: ('A' for Active; 'I' for Inactive)
REMARK    1  A    between atoms: O_2  and  C_21 
REMARK    2  A    between atoms: O_2  and  C_25 
REMARK    3  A    between atoms: O_4  and  C_17 
REMARK    4  A    between atoms: O_5  and  C_24 
REMARK    5  A    between atoms: O_5  and  C_28 
REMARK    6  A    between atoms: O_6  and  C_18 
REMARK    7  A    between atoms: O_7  and  C_19 
REMARK    8  A    between atoms: O_8  and  C_20 
REMARK    9  A    between atoms: O_9  and  C_22 
REMARK   10  A    between atoms: O_10  and  C_23 
REMARK   11  A    between atoms: O_12  and  C_35 
REMARK   12  A    between atoms: O_14  and  C_42 
REMARK   13  A    between atoms: O_15  and  C_40 
REMARK   14  A    between atoms: C_16  and  C_25 
REMARK   15  A    between atoms: C_33  and  C_37 
ROOT
ATOM      1  O   UNK d   1       1.128 -18.176   6.759  0.00  0.00    -0.348 OA
ATOM      2  C   UNK d   1       0.005 -17.288   6.788  0.00  0.00     0.180 C 
ATOM      3  C   UNK d   1       0.328 -16.095   7.704  0.00  0.00     0.180 C 
ATOM      4  C   UNK d   1       0.729 -16.597   9.093  0.00  0.00     0.183 C 
ATOM      5  C   UNK d   1       1.858 -17.629   9.006  0.00  0.00     0.205 C 
ATOM      6  C   UNK d   1       1.441 -18.747   8.031  0.00  0.00     0.298 C 
ENDROOT
BRANCH   6   7
ATOM      7  O   UNK d   1       2.542 -19.653   7.874  0.00  0.00    -0.318 OA
BRANCH   7   8
ATOM      8  C   UNK d   1       2.372 -20.936   8.320  0.00  0.00     0.077 A 
ATOM      9  C   UNK d   1       3.170 -22.033   8.001  0.00  0.00     0.074 A 
ATOM     10  C   UNK d   1       2.829 -23.313   8.455  0.00  0.00     0.089 A 
ATOM     11  O   UNK d   1       3.634 -24.313   7.984  0.00  0.00    -0.340 OA
ATOM     12  C   UNK d   1       1.729 -23.502   9.293  0.00  0.00     0.076 A 
ATOM     13  C   UNK d   1       3.102 -25.641   8.048  0.00  0.00     0.169 C 
ATOM     14  C   UNK d   1       2.421 -25.946   9.371  0.00  0.00     0.121 C 
ATOM     15  C   UNK d   1       1.427 -24.884   9.744  0.00  0.00     0.167 C 
ATOM     16  O   UNK d   1       0.455 -25.164  10.437  0.00  0.00    -0.292 OA
ATOM     17  C   UNK d   1       0.951 -22.392   9.643  0.00  0.00     0.085 A 
ATOM     18  C   UNK d   1       1.267 -21.122   9.151  0.00  0.00     0.074 A 
BRANCH  13  19
ATOM     19  C   UNK d   1       2.315 -26.013   6.793  0.00  0.00    -0.026 A 
ATOM     20  C   UNK d   1       1.874 -27.317   6.524  0.00  0.00     0.049 A 
ATOM     21  C   UNK d   1       1.145 -27.599   5.363  0.00  0.00     0.099 A 
ATOM     22  C   UNK d   1       0.840 -26.599   4.433  0.00  0.00     0.101 A 
ATOM     23  C   UNK d   1       1.279 -25.301   4.690  0.00  0.00     0.040 A 
ATOM     24  C   UNK d   1       2.006 -25.014   5.855  0.00  0.00     0.012 A 
BRANCH  21  25
ATOM     25  O   UNK d   1       0.717 -28.881   5.128  0.00  0.00    -0.358 OA
ATOM     26  H   UNK d   1       1.037 -29.459   5.836  0.00  0.00     0.217 HD
ENDBRANCH  21  25
BRANCH  22  27
ATOM     27  O   UNK d   1       0.121 -26.989   3.336  0.00  0.00    -0.353 OA
ATOM     28  C   UNK d   1      -1.191 -26.466   3.192  0.00  0.00     0.210 C 
ENDBRANCH  22  27
ENDBRANCH  13  19
BRANCH  17  29
ATOM     29  O   UNK d   1      -0.139 -22.524  10.456  0.00  0.00    -0.360 OA
ATOM     30  H   UNK d   1      -0.574 -21.667  10.583  0.00  0.00     0.217 HD
ENDBRANCH  17  29
ENDBRANCH   7   8
ENDBRANCH   6   7
BRANCH   5  31
ATOM     31  O   UNK d   1       2.107 -18.139  10.325  0.00  0.00    -0.388 OA
ATOM     32  H   UNK d   1       2.276 -17.352  10.878  0.00  0.00     0.210 HD
ENDBRANCH   5  31
BRANCH   2  33
ATOM     33  C   UNK d   1      -0.287 -16.803   5.355  0.00  0.00     0.205 C 
BRANCH  33  34
ATOM     34  O   UNK d   1       0.289 -17.658   4.360  0.00  0.00    -0.356 OA
BRANCH  34  35
ATOM     35  C   UNK d   1      -0.392 -17.620   3.099  0.00  0.00     0.291 C 
ATOM     36  O   UNK d   1      -0.514 -16.255   2.672  0.00  0.00    -0.351 OA
ATOM     37  C   UNK d   1      -1.613 -15.956   1.809  0.00  0.00     0.152 C 
ATOM     38  C   UNK d   1      -2.029 -17.169   0.970  0.00  0.00     0.178 C 
ATOM     39  C   UNK d   1      -1.193 -14.766   0.952  0.00  0.00     0.042 C 
ATOM     40  C   UNK d   1      -2.523 -18.283   1.908  0.00  0.00     0.183 C 
ATOM     41  C   UNK d   1      -1.766 -18.309   3.247  0.00  0.00     0.204 C 
BRANCH  38  42
ATOM     42  O   UNK d   1      -3.067 -16.882   0.032  0.00  0.00    -0.390 OA
ATOM     43  H   UNK d   1      -2.687 -16.330  -0.674  0.00  0.00     0.210 HD
ENDBRANCH  38  42
BRANCH  40  44
ATOM     44  O   UNK d   1      -2.375 -19.552   1.234  0.00  0.00    -0.390 OA
ATOM     45  H   UNK d   1      -2.896 -19.469   0.410  0.00  0.00     0.210 HD
ENDBRANCH  40  44
BRANCH  41  46
ATOM     46  O   UNK d   1      -1.668 -19.663   3.715  0.00  0.00    -0.388 OA
ATOM     47  H   UNK d   1      -1.702 -20.218   2.907  0.00  0.00     0.210 HD
ENDBRANCH  41  46
ENDBRANCH  34  35
ENDBRANCH  33  34
ENDBRANCH   2  33
BRANCH   4  48
ATOM     48  O   UNK d   1       1.161 -15.497   9.913  0.00  0.00    -0.390 OA
ATOM     49  H   UNK d   1       0.350 -15.038  10.201  0.00  0.00     0.210 HD
ENDBRANCH   4  48
BRANCH   3  50
ATOM     50  O   UNK d   1      -0.797 -15.222   7.832  0.00  0.00    -0.390 OA
ATOM     51  H   UNK d   1      -0.452 -14.351   8.100  0.00  0.00     0.210 HD
ENDBRANCH   3  50
TORSDOF 15
ENDMDL
MODEL 6
REMARK minimizedAffinity -9.55123615REMARK CNNscore 0.242249519REMARK CNNaffinity 4.8259201REMARK  15 active torsions:
REMARK  status: ('A' for Active; 'I' for Inactive)
REMARK    1  A    between atoms: O_2  and  C_21 
REMARK    2  A    between atoms: O_2  and  C_25 
REMARK    3  A    between atoms: O_4  and  C_17 
REMARK    4  A    between atoms: O_5  and  C_24 
REMARK    5  A    between atoms: O_5  and  C_28 
REMARK    6  A    between atoms: O_6  and  C_18 
REMARK    7  A    between atoms: O_7  and  C_19 
REMARK    8  A    between atoms: O_8  and  C_20 
REMARK    9  A    between atoms: O_9  and  C_22 
REMARK   10  A    between atoms: O_10  and  C_23 
REMARK   11  A    between atoms: O_12  and  C_35 
REMARK   12  A    between atoms: O_14  and  C_42 
REMARK   13  A    between atoms: O_15  and  C_40 
REMARK   14  A    between atoms: C_16  and  C_25 
REMARK   15  A    between atoms: C_33  and  C_37 
ROOT
ATOM      1  O   UNK d   1      18.930  -0.602  -2.495  0.00  0.00    -0.348 OA
ATOM      2  C   UNK d   1      18.905  -1.938  -3.009  0.00  0.00     0.180 C 
ATOM      3  C   UNK d   1      19.893  -2.806  -2.212  0.00  0.00     0.180 C 
ATOM      4  C   UNK d   1      21.288  -2.176  -2.252  0.00  0.00     0.183 C 
ATOM      5  C   UNK d   1      21.250  -0.713  -1.800  0.00  0.00     0.205 C 
ATOM      6  C   UNK d   1      20.198   0.042  -2.634  0.00  0.00     0.298 C 
ENDROOT
BRANCH   6   7
ATOM      7  O   UNK d   1      20.094   1.383  -2.137  0.00  0.00    -0.318 OA
BRANCH   7   8
ATOM      8  C   UNK d   1      20.190   2.403  -3.044  0.00  0.00     0.077 A 
ATOM      9  C   UNK d   1      21.269   3.270  -3.200  0.00  0.00     0.074 A 
ATOM     10  C   UNK d   1      21.199   4.332  -4.110  0.00  0.00     0.089 A 
ATOM     11  O   UNK d   1      22.281   5.168  -4.089  0.00  0.00    -0.340 OA
ATOM     12  C   UNK d   1      20.079   4.498  -4.926  0.00  0.00     0.076 A 
ATOM     13  C   UNK d   1      22.092   6.470  -4.654  0.00  0.00     0.169 C 
ATOM     14  C   UNK d   1      21.338   6.442  -5.972  0.00  0.00     0.121 C 
ATOM     15  C   UNK d   1      20.072   5.641  -5.874  0.00  0.00     0.167 C 
ATOM     16  O   UNK d   1      19.117   5.906  -6.595  0.00  0.00    -0.292 OA
ATOM     17  C   UNK d   1      19.011   3.603  -4.794  0.00  0.00     0.085 A 
ATOM     18  C   UNK d   1      19.065   2.570  -3.853  0.00  0.00     0.074 A 
BRANCH  13  19
ATOM     19  C   UNK d   1      21.594   7.483  -3.624  0.00  0.00    -0.026 A 
ATOM     20  C   UNK d   1      22.375   7.929  -2.549  0.00  0.00     0.049 A 
ATOM     21  C   UNK d   1      21.873   8.868  -1.641  0.00  0.00     0.099 A 
ATOM     22  C   UNK d   1      20.579   9.385  -1.770  0.00  0.00     0.101 A 
ATOM     23  C   UNK d   1      19.793   8.943  -2.833  0.00  0.00     0.040 A 
ATOM     24  C   UNK d   1      20.295   8.005  -3.747  0.00  0.00     0.012 A 
BRANCH  21  25
ATOM     25  O   UNK d   1      22.661   9.296  -0.604  0.00  0.00    -0.358 OA
ATOM     26  H   UNK d   1      23.505   8.822  -0.629  0.00  0.00     0.217 HD
ENDBRANCH  21  25
BRANCH  22  27
ATOM     27  O   UNK d   1      20.193  10.299  -0.827  0.00  0.00    -0.353 OA
ATOM     28  C   UNK d   1      19.111   9.948   0.023  0.00  0.00     0.210 C 
ENDBRANCH  22  27
ENDBRANCH  13  19
BRANCH  17  29
ATOM     29  O   UNK d   1      17.891   3.725  -5.565  0.00  0.00    -0.360 OA
ATOM     30  H   UNK d   1      17.243   3.039  -5.335  0.00  0.00     0.217 HD
ENDBRANCH  17  29
ENDBRANCH   7   8
ENDBRANCH   6   7
BRANCH   5  31
ATOM     31  O   UNK d   1      22.563  -0.155  -1.967  0.00  0.00    -0.388 OA
ATOM     32  H   UNK d   1      23.161  -0.748  -1.474  0.00  0.00     0.210 HD
ENDBRANCH   5  31
BRANCH   2  33
ATOM     33  C   UNK d   1      17.474  -2.496  -2.881  0.00  0.00     0.205 C 
BRANCH  33  34
ATOM     34  O   UNK d   1      16.596  -1.991  -3.894  0.00  0.00    -0.356 OA
BRANCH  34  35
ATOM     35  C   UNK d   1      15.668  -2.962  -4.394  0.00  0.00     0.291 C 
ATOM     36  O   UNK d   1      16.364  -4.193  -4.640  0.00  0.00    -0.351 OA
ATOM     37  C   UNK d   1      15.805  -5.048  -5.641  0.00  0.00     0.152 C 
ATOM     38  C   UNK d   1      14.289  -4.866  -5.767  0.00  0.00     0.178 C 
ATOM     39  C   UNK d   1      16.196  -6.476  -5.273  0.00  0.00     0.042 C 
ATOM     40  C   UNK d   1      13.991  -3.431  -6.229  0.00  0.00     0.183 C 
ATOM     41  C   UNK d   1      14.994  -2.408  -5.668  0.00  0.00     0.204 C 
BRANCH  38  42
ATOM     42  O   UNK d   1      13.684  -5.768  -6.696  0.00  0.00    -0.390 OA
ATOM     43  H   UNK d   1      13.701  -6.658  -6.300  0.00  0.00     0.210 HD
ENDBRANCH  38  42
BRANCH  40  44
ATOM     44  O   UNK d   1      12.651  -3.082  -5.818  0.00  0.00    -0.390 OA
ATOM     45  H   UNK d   1      12.072  -3.757  -6.226  0.00  0.00     0.210 HD
ENDBRANCH  40  44
BRANCH  41  46
ATOM     46  O   UNK d   1      14.328  -1.154  -5.452  0.00  0.00    -0.388 OA
ATOM     47  H   UNK d   1      13.388  -1.384  -5.298  0.00  0.00     0.210 HD
ENDBRANCH  41  46
ENDBRANCH  34  35
ENDBRANCH  33  34
ENDBRANCH   2  33
BRANCH   4  48
ATOM     48  O   UNK d   1      22.187  -2.907  -1.400  0.00  0.00    -0.390 OA
ATOM     49  H   UNK d   1      22.427  -3.717  -1.888  0.00  0.00     0.210 HD
ENDBRANCH   4  48
BRANCH   3  50
ATOM     50  O   UNK d   1      19.966  -4.130  -2.744  0.00  0.00    -0.390 OA
ATOM     51  H   UNK d   1      20.298  -4.706  -2.031  0.00  0.00     0.210 HD
ENDBRANCH   3  50
TORSDOF 15
ENDMDL
MODEL 7
REMARK minimizedAffinity -7.58634949REMARK CNNscore 0.223864198REMARK CNNaffinity 4.64905262REMARK  15 active torsions:
REMARK  status: ('A' for Active; 'I' for Inactive)
REMARK    1  A    between atoms: O_2  and  C_21 
REMARK    2  A    between atoms: O_2  and  C_25 
REMARK    3  A    between atoms: O_4  and  C_17 
REMARK    4  A    between atoms: O_5  and  C_24 
REMARK    5  A    between atoms: O_5  and  C_28 
REMARK    6  A    between atoms: O_6  and  C_18 
REMARK    7  A    between atoms: O_7  and  C_19 
REMARK    8  A    between atoms: O_8  and  C_20 
REMARK    9  A    between atoms: O_9  and  C_22 
REMARK   10  A    between atoms: O_10  and  C_23 
REMARK   11  A    between atoms: O_12  and  C_35 
REMARK   12  A    between atoms: O_14  and  C_42 
REMARK   13  A    between atoms: O_15  and  C_40 
REMARK   14  A    between atoms: C_16  and  C_25 
REMARK   15  A    between atoms: C_33  and  C_37 
ROOT
ATOM      1  O   UNK d   1       0.553 -20.071   8.588  0.00  0.00    -0.348 OA
ATOM      2  C   UNK d   1       0.425 -18.901   9.403  0.00  0.00     0.180 C 
ATOM      3  C   UNK d   1       1.324 -17.790   8.837  0.00  0.00     0.180 C 
ATOM      4  C   UNK d   1       2.767 -18.291   8.731  0.00  0.00     0.183 C 
ATOM      5  C   UNK d   1       2.843 -19.604   7.946  0.00  0.00     0.205 C 
ATOM      6  C   UNK d   1       1.872 -20.621   8.575  0.00  0.00     0.298 C 
ENDROOT
BRANCH   6   7
ATOM      7  O   UNK d   1       1.871 -21.811   7.775  0.00  0.00    -0.318 OA
BRANCH   7   8
ATOM      8  C   UNK d   1       2.117 -22.999   8.408  0.00  0.00     0.077 A 
ATOM      9  C   UNK d   1       3.359 -23.611   8.561  0.00  0.00     0.074 A 
ATOM     10  C   UNK d   1       3.457 -24.876   9.153  0.00  0.00     0.089 A 
ATOM     11  O   UNK d   1       4.717 -25.408   9.145  0.00  0.00    -0.340 OA
ATOM     12  C   UNK d   1       2.326 -25.513   9.666  0.00  0.00     0.076 A 
ATOM     13  C   UNK d   1       4.811 -26.826   9.328  0.00  0.00     0.169 C 
ATOM     14  C   UNK d   1       3.911 -27.343  10.437  0.00  0.00     0.121 C 
ATOM     15  C   UNK d   1       2.501 -26.850  10.287  0.00  0.00     0.167 C 
ATOM     16  O   UNK d   1       1.565 -27.514  10.719  0.00  0.00    -0.292 OA
ATOM     17  C   UNK d   1       1.084 -24.877   9.546  0.00  0.00     0.085 A 
ATOM     18  C   UNK d   1       0.982 -23.635   8.913  0.00  0.00     0.074 A 
BRANCH  13  19
ATOM     19  C   UNK d   1       4.741 -27.588   8.006  0.00  0.00    -0.026 A 
ATOM     20  C   UNK d   1       5.839 -28.264   7.453  0.00  0.00     0.049 A 
ATOM     21  C   UNK d   1       5.716 -28.957   6.244  0.00  0.00     0.099 A 
ATOM     22  C   UNK d   1       4.504 -28.992   5.544  0.00  0.00     0.101 A 
ATOM     23  C   UNK d   1       3.410 -28.318   6.084  0.00  0.00     0.040 A 
ATOM     24  C   UNK d   1       3.528 -27.626   7.298  0.00  0.00     0.012 A 
BRANCH  21  25
ATOM     25  O   UNK d   1       6.801 -29.619   5.730  0.00  0.00    -0.358 OA
ATOM     26  H   UNK d   1       7.567 -29.469   6.304  0.00  0.00     0.217 HD
ENDBRANCH  21  25
BRANCH  22  27
ATOM     27  O   UNK d   1       4.499 -29.702   4.374  0.00  0.00    -0.353 OA
ATOM     28  C   UNK d   1       3.415 -29.488   3.482  0.00  0.00     0.210 C 
ENDBRANCH  22  27
ENDBRANCH  13  19
BRANCH  17  29
ATOM     29  O   UNK d   1      -0.054 -25.460  10.027  0.00  0.00    -0.360 OA
ATOM     30  H   UNK d   1      -0.825 -24.900   9.846  0.00  0.00     0.217 HD
ENDBRANCH  17  29
ENDBRANCH   7   8
ENDBRANCH   6   7
BRANCH   5  31
ATOM     31  O   UNK d   1       4.200 -20.073   7.981  0.00  0.00    -0.388 OA
ATOM     32  H   UNK d   1       4.739 -19.331   7.644  0.00  0.00     0.210 HD
ENDBRANCH   5  31
BRANCH   2  33
ATOM     33  C   UNK d   1      -1.049 -18.452   9.407  0.00  0.00     0.205 C 
BRANCH  33  34
ATOM     34  O   UNK d   1      -1.271 -17.306  10.237  0.00  0.00    -0.356 OA
BRANCH  34  35
ATOM     35  C   UNK d   1      -2.391 -16.507   9.836  0.00  0.00     0.291 C 
ATOM     36  O   UNK d   1      -3.575 -17.319   9.850  0.00  0.00    -0.351 OA
ATOM     37  C   UNK d   1      -4.626 -16.924   8.965  0.00  0.00     0.152 C 
ATOM     38  C   UNK d   1      -4.609 -15.415   8.694  0.00  0.00     0.178 C 
ATOM     39  C   UNK d   1      -5.934 -17.392   9.594  0.00  0.00     0.042 C 
ATOM     40  C   UNK d   1      -3.299 -15.047   7.980  0.00  0.00     0.183 C 
ATOM     41  C   UNK d   1      -2.111 -15.910   8.439  0.00  0.00     0.204 C 
BRANCH  38  42
ATOM     42  O   UNK d   1      -5.699 -14.972   7.885  0.00  0.00    -0.390 OA
ATOM     43  H   UNK d   1      -6.509 -15.023   8.422  0.00  0.00     0.210 HD
ENDBRANCH  38  42
BRANCH  40  44
ATOM     44  O   UNK d   1      -3.017 -13.652   8.224  0.00  0.00    -0.390 OA
ATOM     45  H   UNK d   1      -3.799 -13.168   7.889  0.00  0.00     0.210 HD
ENDBRANCH  40  44
BRANCH  41  46
ATOM     46  O   UNK d   1      -0.907 -15.129   8.393  0.00  0.00    -0.388 OA
ATOM     47  H   UNK d   1      -1.197 -14.200   8.511  0.00  0.00     0.210 HD
ENDBRANCH  41  46
ENDBRANCH  34  35
ENDBRANCH  33  34
ENDBRANCH   2  33
BRANCH   4  48
ATOM     48  O   UNK d   1       3.587 -17.306   8.079  0.00  0.00    -0.390 OA
ATOM     49  H   UNK d   1       3.767 -16.617   8.745  0.00  0.00     0.210 HD
ENDBRANCH   4  48
BRANCH   3  50
ATOM     50  O   UNK d   1       1.296 -16.627   9.667  0.00  0.00    -0.390 OA
ATOM     51  H   UNK d   1       1.567 -15.874   9.111  0.00  0.00     0.210 HD
ENDBRANCH   3  50
TORSDOF 15
ENDMDL
MODEL 8
REMARK minimizedAffinity -7.92972469REMARK CNNscore 0.221440166REMARK CNNaffinity 4.54860401REMARK  15 active torsions:
REMARK  status: ('A' for Active; 'I' for Inactive)
REMARK    1  A    between atoms: O_2  and  C_21 
REMARK    2  A    between atoms: O_2  and  C_25 
REMARK    3  A    between atoms: O_4  and  C_17 
REMARK    4  A    between atoms: O_5  and  C_24 
REMARK    5  A    between atoms: O_5  and  C_28 
REMARK    6  A    between atoms: O_6  and  C_18 
REMARK    7  A    between atoms: O_7  and  C_19 
REMARK    8  A    between atoms: O_8  and  C_20 
REMARK    9  A    between atoms: O_9  and  C_22 
REMARK   10  A    between atoms: O_10  and  C_23 
REMARK   11  A    between atoms: O_12  and  C_35 
REMARK   12  A    between atoms: O_14  and  C_42 
REMARK   13  A    between atoms: O_15  and  C_40 
REMARK   14  A    between atoms: C_16  and  C_25 
REMARK   15  A    between atoms: C_33  and  C_37 
ROOT
ATOM      1  O   UNK d   1      14.792  -3.306 -10.258  0.00  0.00    -0.348 OA
ATOM      2  C   UNK d   1      15.186  -3.940 -11.480  0.00  0.00     0.180 C 
ATOM      3  C   UNK d   1      13.950  -4.568 -12.145  0.00  0.00     0.180 C 
ATOM      4  C   UNK d   1      13.263  -5.526 -11.168  0.00  0.00     0.183 C 
ATOM      5  C   UNK d   1      12.961  -4.838  -9.834  0.00  0.00     0.205 C 
ATOM      6  C   UNK d   1      14.258  -4.210  -9.289  0.00  0.00     0.298 C 
ENDROOT
BRANCH   6   7
ATOM      7  O   UNK d   1      13.948  -3.480  -8.094  0.00  0.00    -0.318 OA
BRANCH   7   8
ATOM      8  C   UNK d   1      14.632  -3.810  -6.956  0.00  0.00     0.077 A 
ATOM      9  C   UNK d   1      14.735  -3.037  -5.802  0.00  0.00     0.074 A 
ATOM     10  C   UNK d   1      15.546  -3.455  -4.739  0.00  0.00     0.089 A 
ATOM     11  O   UNK d   1      15.643  -2.556  -3.713  0.00  0.00    -0.340 OA
ATOM     12  C   UNK d   1      16.204  -4.685  -4.787  0.00  0.00     0.076 A 
ATOM     13  C   UNK d   1      16.758  -2.717  -2.829  0.00  0.00     0.169 C 
ATOM     14  C   UNK d   1      16.996  -4.163  -2.429  0.00  0.00     0.121 C 
ATOM     15  C   UNK d   1      17.042  -5.071  -3.623  0.00  0.00     0.167 C 
ATOM     16  O   UNK d   1      17.702  -6.104  -3.588  0.00  0.00    -0.292 OA
ATOM     17  C   UNK d   1      16.067  -5.478  -5.932  0.00  0.00     0.085 A 
ATOM     18  C   UNK d   1      15.294  -5.037  -7.011  0.00  0.00     0.074 A 
BRANCH  13  19
ATOM     19  C   UNK d   1      17.989  -1.946  -3.300  0.00  0.00    -0.026 A 
ATOM     20  C   UNK d   1      18.981  -1.477  -2.426  0.00  0.00     0.049 A 
ATOM     21  C   UNK d   1      20.095  -0.786  -2.914  0.00  0.00     0.099 A 
ATOM     22  C   UNK d   1      20.254  -0.533  -4.281  0.00  0.00     0.101 A 
ATOM     23  C   UNK d   1      19.271  -0.991  -5.157  0.00  0.00     0.040 A 
ATOM     24  C   UNK d   1      18.154  -1.688  -4.672  0.00  0.00     0.012 A 
BRANCH  21  25
ATOM     25  O   UNK d   1      21.055  -0.347  -2.039  0.00  0.00    -0.358 OA
ATOM     26  H   UNK d   1      20.785  -0.563  -1.134  0.00  0.00     0.217 HD
ENDBRANCH  21  25
BRANCH  22  27
ATOM     27  O   UNK d   1      21.384   0.149  -4.645  0.00  0.00    -0.353 OA
ATOM     28  C   UNK d   1      22.357  -0.552  -5.406  0.00  0.00     0.210 C 
ENDBRANCH  22  27
ENDBRANCH  13  19
BRANCH  17  29
ATOM     29  O   UNK d   1      16.695  -6.687  -6.030  0.00  0.00    -0.360 OA
ATOM     30  H   UNK d   1      16.512  -7.096  -6.891  0.00  0.00     0.217 HD
ENDBRANCH  17  29
ENDBRANCH   7   8
ENDBRANCH   6   7
BRANCH   5  31
ATOM     31  O   UNK d   1      12.424  -5.818  -8.932  0.00  0.00    -0.388 OA
ATOM     32  H   UNK d   1      11.663  -6.212  -9.402  0.00  0.00     0.210 HD
ENDBRANCH   5  31
BRANCH   2  33
ATOM     33  C   UNK d   1      15.820  -2.886 -12.408  0.00  0.00     0.205 C 
BRANCH  33  34
ATOM     34  O   UNK d   1      14.859  -2.269 -13.273  0.00  0.00    -0.356 OA
BRANCH  34  35
ATOM     35  C   UNK d   1      15.434  -1.661 -14.437  0.00  0.00     0.291 C 
ATOM     36  O   UNK d   1      15.181  -0.248 -14.402  0.00  0.00    -0.351 OA
ATOM     37  C   UNK d   1      15.133   0.419 -15.665  0.00  0.00     0.152 C 
ATOM     38  C   UNK d   1      15.999  -0.283 -16.717  0.00  0.00     0.178 C 
ATOM     39  C   UNK d   1      15.562   1.862 -15.421  0.00  0.00     0.042 C 
ATOM     40  C   UNK d   1      15.441  -1.694 -16.967  0.00  0.00     0.183 C 
ATOM     41  C   UNK d   1      14.844  -2.328 -15.699  0.00  0.00     0.204 C 
BRANCH  38  42
ATOM     42  O   UNK d   1      16.045   0.406 -17.967  0.00  0.00    -0.390 OA
ATOM     43  H   UNK d   1      16.576   1.213 -17.843  0.00  0.00     0.210 HD
ENDBRANCH  38  42
BRANCH  40  44
ATOM     44  O   UNK d   1      16.505  -2.526 -17.478  0.00  0.00    -0.390 OA
ATOM     45  H   UNK d   1      16.819  -2.076 -18.288  0.00  0.00     0.210 HD
ENDBRANCH  40  44
BRANCH  41  46
ATOM     46  O   UNK d   1      15.049  -3.748 -15.732  0.00  0.00    -0.388 OA
ATOM     47  H   UNK d   1      15.849  -3.881 -16.282  0.00  0.00     0.210 HD
ENDBRANCH  41  46
ENDBRANCH  34  35
ENDBRANCH  33  34
ENDBRANCH   2  33
BRANCH   4  48
ATOM     48  O   UNK d   1      12.034  -6.015 -11.734  0.00  0.00    -0.390 OA
ATOM     49  H   UNK d   1      12.286  -6.695 -12.385  0.00  0.00     0.210 HD
ENDBRANCH   4  48
BRANCH   3  50
ATOM     50  O   UNK d   1      14.307  -5.287 -13.328  0.00  0.00    -0.390 OA
ATOM     51  H   UNK d   1      13.505  -5.348 -13.877  0.00  0.00     0.210 HD
ENDBRANCH   3  50
TORSDOF 15
ENDMDL
MODEL 9
REMARK minimizedAffinity -7.75864697REMARK CNNscore 0.217611864REMARK CNNaffinity 4.18893957REMARK  15 active torsions:
REMARK  status: ('A' for Active; 'I' for Inactive)
REMARK    1  A    between atoms: O_2  and  C_21 
REMARK    2  A    between atoms: O_2  and  C_25 
REMARK    3  A    between atoms: O_4  and  C_17 
REMARK    4  A    between atoms: O_5  and  C_24 
REMARK    5  A    between atoms: O_5  and  C_28 
REMARK    6  A    between atoms: O_6  and  C_18 
REMARK    7  A    between atoms: O_7  and  C_19 
REMARK    8  A    between atoms: O_8  and  C_20 
REMARK    9  A    between atoms: O_9  and  C_22 
REMARK   10  A    between atoms: O_10  and  C_23 
REMARK   11  A    between atoms: O_12  and  C_35 
REMARK   12  A    between atoms: O_14  and  C_42 
REMARK   13  A    between atoms: O_15  and  C_40 
REMARK   14  A    between atoms: C_16  and  C_25 
REMARK   15  A    between atoms: C_33  and  C_37 
ROOT
ATOM      1  O   UNK d   1      27.224  -6.690  20.510  0.00  0.00    -0.348 OA
ATOM      2  C   UNK d   1      27.805  -6.014  19.389  0.00  0.00     0.180 C 
ATOM      3  C   UNK d   1      27.608  -6.870  18.127  0.00  0.00     0.180 C 
ATOM      4  C   UNK d   1      28.189  -8.268  18.349  0.00  0.00     0.183 C 
ATOM      5  C   UNK d   1      27.624  -8.909  19.621  0.00  0.00     0.205 C 
ATOM      6  C   UNK d   1      27.838  -7.946  20.804  0.00  0.00     0.298 C 
ENDROOT
BRANCH   6   7
ATOM      7  O   UNK d   1      27.215  -8.505  21.969  0.00  0.00    -0.318 OA
BRANCH   7   8
ATOM      8  C   UNK d   1      27.067  -7.691  23.059  0.00  0.00     0.077 A 
ATOM      9  C   UNK d   1      25.869  -7.174  23.546  0.00  0.00     0.074 A 
ATOM     10  C   UNK d   1      25.870  -6.276  24.620  0.00  0.00     0.089 A 
ATOM     11  O   UNK d   1      24.640  -5.763  24.930  0.00  0.00    -0.340 OA
ATOM     12  C   UNK d   1      27.060  -5.939  25.267  0.00  0.00     0.076 A 
ATOM     13  C   UNK d   1      24.629  -4.554  25.698  0.00  0.00     0.169 C 
ATOM     14  C   UNK d   1      25.617  -4.573  26.851  0.00  0.00     0.121 C 
ATOM     15  C   UNK d   1      26.989  -4.986  26.403  0.00  0.00     0.167 C 
ATOM     16  O   UNK d   1      27.981  -4.586  27.003  0.00  0.00    -0.292 OA
ATOM     17  C   UNK d   1      28.259  -6.491  24.799  0.00  0.00     0.085 A 
ATOM     18  C   UNK d   1      28.261  -7.352  23.698  0.00  0.00     0.074 A 
BRANCH  13  19
ATOM     19  C   UNK d   1      24.659  -3.307  24.817  0.00  0.00    -0.026 A 
ATOM     20  C   UNK d   1      24.535  -3.351  23.420  0.00  0.00     0.049 A 
ATOM     21  C   UNK d   1      24.557  -2.175  22.663  0.00  0.00     0.099 A 
ATOM     22  C   UNK d   1      24.712  -0.923  23.267  0.00  0.00     0.101 A 
ATOM     23  C   UNK d   1      24.842  -0.869  24.654  0.00  0.00     0.040 A 
ATOM     24  C   UNK d   1      24.816  -2.046  25.417  0.00  0.00     0.012 A 
BRANCH  21  25
ATOM     25  O   UNK d   1      24.423  -2.246  21.300  0.00  0.00    -0.358 OA
ATOM     26  H   UNK d   1      24.364  -3.175  21.033  0.00  0.00     0.217 HD
ENDBRANCH  21  25
BRANCH  22  27
ATOM     27  O   UNK d   1      24.717   0.160  22.429  0.00  0.00    -0.353 OA
ATOM     28  C   UNK d   1      24.967   1.433  23.004  0.00  0.00     0.210 C 
ENDBRANCH  22  27
ENDBRANCH  13  19
BRANCH  17  29
ATOM     29  O   UNK d   1      29.451  -6.190  25.394  0.00  0.00    -0.360 OA
ATOM     30  H   UNK d   1      30.181  -6.637  24.938  0.00  0.00     0.217 HD
ENDBRANCH  17  29
ENDBRANCH   7   8
ENDBRANCH   6   7
BRANCH   5  31
ATOM     31  O   UNK d   1      28.291 -10.164  19.828  0.00  0.00    -0.388 OA
ATOM     32  H   UNK d   1      28.169 -10.662  18.997  0.00  0.00     0.210 HD
ENDBRANCH   5  31
BRANCH   2  33
ATOM     33  C   UNK d   1      27.122  -4.643  19.223  0.00  0.00     0.205 C 
BRANCH  33  34
ATOM     34  O   UNK d   1      26.006  -4.691  18.325  0.00  0.00    -0.356 OA
BRANCH  34  35
ATOM     35  C   UNK d   1      25.840  -3.502  17.543  0.00  0.00     0.291 C 
ATOM     36  O   UNK d   1      24.817  -2.689  18.137  0.00  0.00    -0.351 OA
ATOM     37  C   UNK d   1      24.109  -1.815  17.255  0.00  0.00     0.152 C 
ATOM     38  C   UNK d   1      24.967  -1.395  16.056  0.00  0.00     0.178 C 
ATOM     39  C   UNK d   1      23.644  -0.626  18.088  0.00  0.00     0.042 C 
ATOM     40  C   UNK d   1      25.312  -2.640  15.224  0.00  0.00     0.183 C 
ATOM     41  C   UNK d   1      25.499  -3.898  16.089  0.00  0.00     0.204 C 
BRANCH  38  42
ATOM     42  O   UNK d   1      24.323  -0.450  15.200  0.00  0.00    -0.390 OA
ATOM     43  H   UNK d   1      24.286   0.402  15.670  0.00  0.00     0.210 HD
ENDBRANCH  38  42
BRANCH  40  44
ATOM     44  O   UNK d   1      26.519  -2.374  14.475  0.00  0.00    -0.390 OA
ATOM     45  H   UNK d   1      26.320  -1.582  13.937  0.00  0.00     0.210 HD
ENDBRANCH  40  44
BRANCH  41  46
ATOM     46  O   UNK d   1      26.490  -4.747  15.491  0.00  0.00    -0.388 OA
ATOM     47  H   UNK d   1      27.071  -4.146  14.978  0.00  0.00     0.210 HD
ENDBRANCH  41  46
ENDBRANCH  34  35
ENDBRANCH  33  34
ENDBRANCH   2  33
BRANCH   4  48
ATOM     48  O   UNK d   1      27.890  -9.114  17.225  0.00  0.00    -0.390 OA
ATOM     49  H   UNK d   1      28.511  -8.857  16.518  0.00  0.00     0.210 HD
ENDBRANCH   4  48
BRANCH   3  50
ATOM     50  O   UNK d   1      28.246  -6.276  16.994  0.00  0.00    -0.390 OA
ATOM     51  H   UNK d   1      27.810  -6.636  16.200  0.00  0.00     0.210 HD
ENDBRANCH   3  50
TORSDOF 15
ENDMDL
