MODEL 1
REMARK VINA RESULT:      -8.1      0.000      0.000
REMARK  10 active torsions:
REMARK  status: ('A' for Active; 'I' for Inactive)
REMARK       I    between atoms: N_6  and  C_20 
REMARK    1  A    between atoms: N_6  and  C_21 
REMARK    2  A    between atoms: N_6  and  C_24 
REMARK    3  A    between atoms: N_7  and  C_14 
REMARK    4  A    between atoms: N_7  and  C_22 
REMARK    5  A    between atoms: N_9  and  C_35 
REMARK    6  A    between atoms: C_12  and  C_14 
REMARK    7  A    between atoms: C_15  and  C_20 
REMARK    8  A    between atoms: C_21  and  C_23 
REMARK    9  A    between atoms: C_23  and  C_31 
REMARK   10  A    between atoms: C_30  and  C_35 
ROOT
ATOM      1  N   LIG d   1      19.703   1.460  -6.915  0.00  0.00    -0.337 N 
ATOM      2  N   LIG d   1      17.900   2.261  -5.902  0.00  0.00    -0.232 NA
ATOM      3  C   LIG d   1      18.739   0.489  -7.059  0.00  0.00     0.064 A 
ATOM      4  C   LIG d   1      19.174   2.487  -6.164  0.00  0.00     0.120 A 
ATOM      5  C   LIG d   1      17.611   1.035  -6.450  0.00  0.00     0.086 A 
ATOM      6  C   LIG d   1      16.370  -0.949  -7.047  0.00  0.00     0.035 A 
ATOM      7  C   LIG d   1      16.398   0.330  -6.467  0.00  0.00     0.051 A 
ATOM      8  C   LIG d   1      18.732  -0.771  -7.668  0.00  0.00     0.033 A 
ATOM      9  C   LIG d   1      17.525  -1.479  -7.644  0.00  0.00     0.019 A 
ATOM     10  C   LIG d   1      21.028   1.429  -7.483  0.00  0.00     0.158 C 
ENDROOT
BRANCH   4  11
ATOM     11  C   LIG d   1      19.939   3.704  -5.731  0.00  0.00     0.171 C 
BRANCH  11  12
ATOM     12  N   LIG d   1      19.134   4.923  -5.775  0.00  0.00    -0.286 NA
ATOM     13  H   LIG d   1      18.144   4.672  -5.745  0.00  0.00     0.128 HD
BRANCH  12  14
ATOM     14  C   LIG d   1      19.428   5.961  -4.882  0.00  0.00     0.008 A 
ATOM     15  C   LIG d   1      20.691   6.560  -4.792  0.00  0.00     0.024 A 
ATOM     16  C   LIG d   1      20.920   7.652  -3.943  0.00  0.00     0.017 A 
ATOM     17  C   LIG d   1      19.875   8.187  -3.184  0.00  0.00     0.009 A 
ATOM     18  C   LIG d   1      18.599   7.634  -3.306  0.00  0.00     0.017 A 
ATOM     19  C   LIG d   1      18.381   6.543  -4.154  0.00  0.00     0.024 A 
BRANCH  17  20
ATOM     20  C   LIG d   1      20.112   9.323  -2.261  0.00  0.00     0.123 C 
ATOM     21  N   LIG d   1      20.853  10.332  -2.667  0.00  0.00    -0.284 NA
ATOM     22  H   LIG d   1      20.979  11.087  -1.982  0.00  0.00     0.188 HD
BRANCH  20  23
ATOM     23  N   LIG d   1      19.611   9.373  -1.089  0.00  0.00    -0.384 N 
ATOM     24  H   LIG d   1      20.123   8.909  -0.348  0.00  0.00     0.157 HD
ATOM     25  H   LIG d   1      18.767   9.894  -0.888  0.00  0.00     0.157 HD
ENDBRANCH  20  23
ENDBRANCH  17  20
ENDBRANCH  12  14
ENDBRANCH  11  12
ENDBRANCH   4  11
BRANCH   6  26
ATOM     26  C   LIG d   1      15.105  -1.735  -7.163  0.00  0.00     0.259 C 
ATOM     27  O   LIG d   1      14.492  -1.629  -8.231  0.00  0.00    -0.267 OA
ATOM     28  N   LIG d   1      14.609  -2.457  -6.067  0.00  0.00    -0.298 N 
BRANCH  28  29
ATOM     29  C   LIG d   1      13.178  -2.806  -6.091  0.00  0.00     0.144 C 
BRANCH  29  30
ATOM     30  C   LIG d   1      12.922  -4.262  -6.466  0.00  0.00     0.133 C 
BRANCH  30  31
ATOM     31  C   LIG d   1      12.813  -4.498  -7.963  0.00  0.00     0.174 C 
ATOM     32  O   LIG d   1      11.771  -4.033  -8.503  0.00  0.00    -0.648 OA
ATOM     33  O   LIG d   1      13.783  -5.103  -8.501  0.00  0.00    -0.648 OA
ENDBRANCH  30  31
ENDBRANCH  29  30
ENDBRANCH  28  29
BRANCH  28  34
ATOM     34  C   LIG d   1      15.469  -3.136  -5.154  0.00  0.00     0.132 A 
ATOM     35  N   LIG d   1      15.966  -4.345  -5.520  0.00  0.00    -0.243 NA
ATOM     36  C   LIG d   1      16.771  -4.997  -4.653  0.00  0.00     0.119 A 
ATOM     37  C   LIG d   1      17.119  -4.514  -3.406  0.00  0.00     0.019 A 
ATOM     38  C   LIG d   1      16.612  -3.281  -3.032  0.00  0.00     0.005 A 
ATOM     39  C   LIG d   1      15.780  -2.587  -3.911  0.00  0.00     0.051 A 
ENDBRANCH  28  34
ENDBRANCH   6  26
TORSDOF 10
ENDMDL
MODEL 2
REMARK VINA RESULT:      -7.8      1.916      3.002
REMARK  10 active torsions:
REMARK  status: ('A' for Active; 'I' for Inactive)
REMARK       I    between atoms: N_6  and  C_20 
REMARK    1  A    between atoms: N_6  and  C_21 
REMARK    2  A    between atoms: N_6  and  C_24 
REMARK    3  A    between atoms: N_7  and  C_14 
REMARK    4  A    between atoms: N_7  and  C_22 
REMARK    5  A    between atoms: N_9  and  C_35 
REMARK    6  A    between atoms: C_12  and  C_14 
REMARK    7  A    between atoms: C_15  and  C_20 
REMARK    8  A    between atoms: C_21  and  C_23 
REMARK    9  A    between atoms: C_23  and  C_31 
REMARK   10  A    between atoms: C_30  and  C_35 
ROOT
ATOM      1  N   LIG d   1      20.409   0.269  -8.116  0.00  0.00    -0.337 N 
ATOM      2  N   LIG d   1      19.367   1.098  -6.343  0.00  0.00    -0.232 NA
ATOM      3  C   LIG d   1      19.185  -0.358  -8.083  0.00  0.00     0.064 A 
ATOM      4  C   LIG d   1      20.501   1.097  -7.019  0.00  0.00     0.120 A 
ATOM      5  C   LIG d   1      18.541   0.210  -6.986  0.00  0.00     0.086 A 
ATOM      6  C   LIG d   1      16.599  -1.142  -7.470  0.00  0.00     0.035 A 
ATOM      7  C   LIG d   1      17.220  -0.155  -6.686  0.00  0.00     0.051 A 
ATOM      8  C   LIG d   1      18.581  -1.323  -8.897  0.00  0.00     0.033 A 
ATOM      9  C   LIG d   1      17.277  -1.705  -8.563  0.00  0.00     0.019 A 
ATOM     10  C   LIG d   1      21.412   0.118  -9.142  0.00  0.00     0.158 C 
ENDROOT
BRANCH   4  11
ATOM     11  C   LIG d   1      21.716   1.905  -6.664  0.00  0.00     0.171 C 
BRANCH  11  12
ATOM     12  N   LIG d   1      21.632   3.288  -7.128  0.00  0.00    -0.286 NA
ATOM     13  H   LIG d   1      21.394   3.293  -8.123  0.00  0.00     0.128 HD
BRANCH  12  14
ATOM     14  C   LIG d   1      20.848   4.198  -6.408  0.00  0.00     0.008 A 
ATOM     15  C   LIG d   1      19.577   4.613  -6.827  0.00  0.00     0.024 A 
ATOM     16  C   LIG d   1      18.790   5.460  -6.035  0.00  0.00     0.017 A 
ATOM     17  C   LIG d   1      19.253   5.891  -4.787  0.00  0.00     0.009 A 
ATOM     18  C   LIG d   1      20.494   5.441  -4.334  0.00  0.00     0.017 A 
ATOM     19  C   LIG d   1      21.273   4.596  -5.134  0.00  0.00     0.024 A 
BRANCH  17  20
ATOM     20  C   LIG d   1      18.442   6.811  -3.954  0.00  0.00     0.123 C 
ATOM     21  N   LIG d   1      19.001   7.389  -2.911  0.00  0.00    -0.284 NA
ATOM     22  H   LIG d   1      18.388   8.014  -2.375  0.00  0.00     0.188 HD
BRANCH  20  23
ATOM     23  N   LIG d   1      17.225   7.084  -4.217  0.00  0.00    -0.384 N 
ATOM     24  H   LIG d   1      16.556   6.984  -3.461  0.00  0.00     0.157 HD
ATOM     25  H   LIG d   1      16.936   7.436  -5.120  0.00  0.00     0.157 HD
ENDBRANCH  20  23
ENDBRANCH  17  20
ENDBRANCH  12  14
ENDBRANCH  11  12
ENDBRANCH   4  11
BRANCH   6  26
ATOM     26  C   LIG d   1      15.175  -1.539  -7.256  0.00  0.00     0.259 C 
ATOM     27  O   LIG d   1      14.425  -1.428  -8.232  0.00  0.00    -0.267 OA
ATOM     28  N   LIG d   1      14.720  -1.908  -5.982  0.00  0.00    -0.298 N 
BRANCH  28  29
ATOM     29  C   LIG d   1      13.268  -1.831  -5.744  0.00  0.00     0.144 C 
BRANCH  29  30
ATOM     30  C   LIG d   1      12.857  -0.604  -4.937  0.00  0.00     0.133 C 
BRANCH  30  31
ATOM     31  C   LIG d   1      13.779   0.589  -5.124  0.00  0.00     0.174 C 
ATOM     32  O   LIG d   1      13.736   1.125  -6.266  0.00  0.00    -0.648 OA
ATOM     33  O   LIG d   1      14.460   0.928  -4.115  0.00  0.00    -0.648 OA
ENDBRANCH  30  31
ENDBRANCH  29  30
ENDBRANCH  28  29
BRANCH  28  34
ATOM     34  C   LIG d   1      15.528  -2.657  -5.075  0.00  0.00     0.132 A 
ATOM     35  N   LIG d   1      15.918  -2.058  -3.921  0.00  0.00    -0.243 NA
ATOM     36  C   LIG d   1      16.694  -2.758  -3.065  0.00  0.00     0.119 A 
ATOM     37  C   LIG d   1      17.123  -4.051  -3.291  0.00  0.00     0.019 A 
ATOM     38  C   LIG d   1      16.726  -4.663  -4.468  0.00  0.00     0.005 A 
ATOM     39  C   LIG d   1      15.923  -3.961  -5.367  0.00  0.00     0.051 A 
ENDBRANCH  28  34
ENDBRANCH   6  26
TORSDOF 10
ENDMDL
MODEL 3
REMARK VINA RESULT:      -7.8      1.505      2.141
REMARK  10 active torsions:
REMARK  status: ('A' for Active; 'I' for Inactive)
REMARK       I    between atoms: N_6  and  C_20 
REMARK    1  A    between atoms: N_6  and  C_21 
REMARK    2  A    between atoms: N_6  and  C_24 
REMARK    3  A    between atoms: N_7  and  C_14 
REMARK    4  A    between atoms: N_7  and  C_22 
REMARK    5  A    between atoms: N_9  and  C_35 
REMARK    6  A    between atoms: C_12  and  C_14 
REMARK    7  A    between atoms: C_15  and  C_20 
REMARK    8  A    between atoms: C_21  and  C_23 
REMARK    9  A    between atoms: C_23  and  C_31 
REMARK   10  A    between atoms: C_30  and  C_35 
ROOT
ATOM      1  N   LIG d   1      20.478   0.311  -8.155  0.00  0.00    -0.337 N 
ATOM      2  N   LIG d   1      19.372   0.835  -6.305  0.00  0.00    -0.232 NA
ATOM      3  C   LIG d   1      19.295  -0.388  -8.223  0.00  0.00     0.064 A 
ATOM      4  C   LIG d   1      20.509   0.992  -6.957  0.00  0.00     0.120 A 
ATOM      5  C   LIG d   1      18.608  -0.010  -7.072  0.00  0.00     0.086 A 
ATOM      6  C   LIG d   1      16.757  -1.402  -7.758  0.00  0.00     0.035 A 
ATOM      7  C   LIG d   1      17.310  -0.491  -6.843  0.00  0.00     0.051 A 
ATOM      8  C   LIG d   1      18.758  -1.273  -9.165  0.00  0.00     0.033 A 
ATOM      9  C   LIG d   1      17.478  -1.774  -8.905  0.00  0.00     0.019 A 
ATOM     10  C   LIG d   1      21.496   0.357  -9.175  0.00  0.00     0.158 C 
ENDROOT
BRANCH   4  11
ATOM     11  C   LIG d   1      21.669   1.818  -6.480  0.00  0.00     0.171 C 
BRANCH  11  12
ATOM     12  N   LIG d   1      21.566   3.220  -6.879  0.00  0.00    -0.286 NA
ATOM     13  H   LIG d   1      21.367   3.269  -7.881  0.00  0.00     0.128 HD
BRANCH  12  14
ATOM     14  C   LIG d   1      20.731   4.074  -6.148  0.00  0.00     0.008 A 
ATOM     15  C   LIG d   1      21.061   4.566  -4.879  0.00  0.00     0.024 A 
ATOM     16  C   LIG d   1      20.235   5.483  -4.216  0.00  0.00     0.017 A 
ATOM     17  C   LIG d   1      19.067   5.950  -4.827  0.00  0.00     0.009 A 
ATOM     18  C   LIG d   1      18.754   5.510  -6.114  0.00  0.00     0.017 A 
ATOM     19  C   LIG d   1      19.585   4.591  -6.767  0.00  0.00     0.024 A 
BRANCH  17  20
ATOM     20  C   LIG d   1      18.169   6.899  -4.124  0.00  0.00     0.123 C 
ATOM     21  N   LIG d   1      16.874   6.839  -4.349  0.00  0.00    -0.284 NA
ATOM     22  H   LIG d   1      16.307   7.522  -3.832  0.00  0.00     0.188 HD
BRANCH  20  23
ATOM     23  N   LIG d   1      18.600   7.763  -3.290  0.00  0.00    -0.384 N 
ATOM     24  H   LIG d   1      18.732   7.454  -2.333  0.00  0.00     0.157 HD
ATOM     25  H   LIG d   1      18.852   8.701  -3.571  0.00  0.00     0.157 HD
ENDBRANCH  20  23
ENDBRANCH  17  20
ENDBRANCH  12  14
ENDBRANCH  11  12
ENDBRANCH   4  11
BRANCH   6  26
ATOM     26  C   LIG d   1      15.359  -1.909  -7.621  0.00  0.00     0.259 C 
ATOM     27  O   LIG d   1      14.628  -1.767  -8.607  0.00  0.00    -0.267 OA
ATOM     28  N   LIG d   1      14.900  -2.413  -6.396  0.00  0.00    -0.298 N 
BRANCH  28  29
ATOM     29  C   LIG d   1      13.441  -2.453  -6.196  0.00  0.00     0.144 C 
BRANCH  29  30
ATOM     30  C   LIG d   1      12.863  -3.862  -6.267  0.00  0.00     0.133 C 
BRANCH  30  31
ATOM     31  C   LIG d   1      12.705  -4.388  -7.684  0.00  0.00     0.174 C 
ATOM     32  O   LIG d   1      13.570  -5.237  -8.039  0.00  0.00    -0.648 OA
ATOM     33  O   LIG d   1      11.717  -3.944  -8.334  0.00  0.00    -0.648 OA
ENDBRANCH  30  31
ENDBRANCH  29  30
ENDBRANCH  28  29
BRANCH  28  34
ATOM     34  C   LIG d   1      15.735  -3.179  -5.529  0.00  0.00     0.132 A 
ATOM     35  N   LIG d   1      16.348  -4.279  -6.036  0.00  0.00    -0.243 NA
ATOM     36  C   LIG d   1      17.130  -5.014  -5.215  0.00  0.00     0.119 A 
ATOM     37  C   LIG d   1      17.342  -4.722  -3.882  0.00  0.00     0.019 A 
ATOM     38  C   LIG d   1      16.716  -3.600  -3.363  0.00  0.00     0.005 A 
ATOM     39  C   LIG d   1      15.906  -2.824  -4.192  0.00  0.00     0.051 A 
ENDBRANCH  28  34
ENDBRANCH   6  26
TORSDOF 10
ENDMDL
MODEL 4
REMARK VINA RESULT:      -7.6     28.724     31.784
REMARK  10 active torsions:
REMARK  status: ('A' for Active; 'I' for Inactive)
REMARK       I    between atoms: N_6  and  C_20 
REMARK    1  A    between atoms: N_6  and  C_21 
REMARK    2  A    between atoms: N_6  and  C_24 
REMARK    3  A    between atoms: N_7  and  C_14 
REMARK    4  A    between atoms: N_7  and  C_22 
REMARK    5  A    between atoms: N_9  and  C_35 
REMARK    6  A    between atoms: C_12  and  C_14 
REMARK    7  A    between atoms: C_15  and  C_20 
REMARK    8  A    between atoms: C_21  and  C_23 
REMARK    9  A    between atoms: C_23  and  C_31 
REMARK   10  A    between atoms: C_30  and  C_35 
ROOT
ATOM      1  N   LIG d   1       7.984  -3.931  20.041  0.00  0.00    -0.337 N 
ATOM      2  N   LIG d   1       8.176  -3.494  22.207  0.00  0.00    -0.232 NA
ATOM      3  C   LIG d   1       8.268  -2.587  20.121  0.00  0.00     0.064 A 
ATOM      4  C   LIG d   1       7.883  -4.428  21.322  0.00  0.00     0.120 A 
ATOM      5  C   LIG d   1       8.421  -2.351  21.485  0.00  0.00     0.086 A 
ATOM      6  C   LIG d   1       8.926  -0.040  20.995  0.00  0.00     0.035 A 
ATOM      7  C   LIG d   1       8.786  -1.074  21.936  0.00  0.00     0.051 A 
ATOM      8  C   LIG d   1       8.427  -1.583  19.159  0.00  0.00     0.033 A 
ATOM      9  C   LIG d   1       8.754  -0.306  19.626  0.00  0.00     0.019 A 
ATOM     10  C   LIG d   1       7.853  -4.699  18.828  0.00  0.00     0.158 C 
ENDROOT
BRANCH   4  11
ATOM     11  C   LIG d   1       7.515  -5.846  21.657  0.00  0.00     0.171 C 
BRANCH  11  12
ATOM     12  N   LIG d   1       6.217  -5.953  22.319  0.00  0.00    -0.286 NA
ATOM     13  H   LIG d   1       5.621  -6.591  21.786  0.00  0.00     0.128 HD
BRANCH  12  14
ATOM     14  C   LIG d   1       6.176  -6.237  23.689  0.00  0.00     0.008 A 
ATOM     15  C   LIG d   1       7.085  -5.701  24.610  0.00  0.00     0.024 A 
ATOM     16  C   LIG d   1       6.959  -5.944  25.984  0.00  0.00     0.017 A 
ATOM     17  C   LIG d   1       5.896  -6.713  26.470  0.00  0.00     0.009 A 
ATOM     18  C   LIG d   1       4.952  -7.208  25.568  0.00  0.00     0.017 A 
ATOM     19  C   LIG d   1       5.089  -6.961  24.198  0.00  0.00     0.024 A 
BRANCH  17  20
ATOM     20  C   LIG d   1       5.769  -7.002  27.919  0.00  0.00     0.123 C 
ATOM     21  N   LIG d   1       4.585  -6.911  28.487  0.00  0.00    -0.284 NA
ATOM     22  H   LIG d   1       4.563  -7.123  29.491  0.00  0.00     0.188 HD
BRANCH  20  23
ATOM     23  N   LIG d   1       6.761  -7.355  28.639  0.00  0.00    -0.384 N 
ATOM     24  H   LIG d   1       6.580  -8.029  29.374  0.00  0.00     0.157 HD
ATOM     25  H   LIG d   1       7.699  -7.023  28.460  0.00  0.00     0.157 HD
ENDBRANCH  20  23
ENDBRANCH  17  20
ENDBRANCH  12  14
ENDBRANCH  11  12
ENDBRANCH   4  11
BRANCH   6  26
ATOM     26  C   LIG d   1       9.375   1.329  21.386  0.00  0.00     0.259 C 
ATOM     27  O   LIG d   1      10.520   1.645  21.047  0.00  0.00    -0.267 OA
ATOM     28  N   LIG d   1       8.562   2.145  22.187  0.00  0.00    -0.298 N 
BRANCH  28  29
ATOM     29  C   LIG d   1       9.226   3.246  22.907  0.00  0.00     0.144 C 
BRANCH  29  30
ATOM     30  C   LIG d   1       9.294   3.022  24.414  0.00  0.00     0.133 C 
BRANCH  30  31
ATOM     31  C   LIG d   1       9.656   1.599  24.806  0.00  0.00     0.174 C 
ATOM     32  O   LIG d   1      10.834   1.248  24.517  0.00  0.00    -0.648 OA
ATOM     33  O   LIG d   1       8.755   0.942  25.400  0.00  0.00    -0.648 OA
ENDBRANCH  30  31
ENDBRANCH  29  30
ENDBRANCH  28  29
BRANCH  28  34
ATOM     34  C   LIG d   1       7.142   2.167  22.053  0.00  0.00     0.132 A 
ATOM     35  N   LIG d   1       6.403   1.480  22.960  0.00  0.00    -0.243 NA
ATOM     36  C   LIG d   1       5.058   1.488  22.830  0.00  0.00     0.119 A 
ATOM     37  C   LIG d   1       4.382   2.150  21.823  0.00  0.00     0.019 A 
ATOM     38  C   LIG d   1       5.136   2.852  20.898  0.00  0.00     0.005 A 
ATOM     39  C   LIG d   1       6.526   2.860  21.013  0.00  0.00     0.051 A 
ENDBRANCH  28  34
ENDBRANCH   6  26
TORSDOF 10
ENDMDL
MODEL 5
REMARK VINA RESULT:      -7.6     18.936     22.966
REMARK  10 active torsions:
REMARK  status: ('A' for Active; 'I' for Inactive)
REMARK       I    between atoms: N_6  and  C_20 
REMARK    1  A    between atoms: N_6  and  C_21 
REMARK    2  A    between atoms: N_6  and  C_24 
REMARK    3  A    between atoms: N_7  and  C_14 
REMARK    4  A    between atoms: N_7  and  C_22 
REMARK    5  A    between atoms: N_9  and  C_35 
REMARK    6  A    between atoms: C_12  and  C_14 
REMARK    7  A    between atoms: C_15  and  C_20 
REMARK    8  A    between atoms: C_21  and  C_23 
REMARK    9  A    between atoms: C_23  and  C_31 
REMARK   10  A    between atoms: C_30  and  C_35 
ROOT
ATOM      1  N   LIG d   1       8.869  16.794   2.965  0.00  0.00    -0.337 N 
ATOM      2  N   LIG d   1      10.191  16.909   1.188  0.00  0.00    -0.232 NA
ATOM      3  C   LIG d   1       8.514  17.955   2.317  0.00  0.00     0.064 A 
ATOM      4  C   LIG d   1       9.921  16.223   2.283  0.00  0.00     0.120 A 
ATOM      5  C   LIG d   1       9.330  17.979   1.188  0.00  0.00     0.086 A 
ATOM      6  C   LIG d   1       8.266  20.036   0.504  0.00  0.00     0.035 A 
ATOM      7  C   LIG d   1       9.191  19.010   0.247  0.00  0.00     0.051 A 
ATOM      8  C   LIG d   1       7.566  18.949   2.583  0.00  0.00     0.033 A 
ATOM      9  C   LIG d   1       7.464  19.991   1.655  0.00  0.00     0.019 A 
ATOM     10  C   LIG d   1       8.228  16.247   4.135  0.00  0.00     0.158 C 
ENDROOT
BRANCH   4  11
ATOM     11  C   LIG d   1      10.637  14.976   2.717  0.00  0.00     0.171 C 
BRANCH  11  12
ATOM     12  N   LIG d   1      12.003  15.236   3.166  0.00  0.00    -0.286 NA
ATOM     13  H   LIG d   1      12.453  15.883   2.514  0.00  0.00     0.128 HD
BRANCH  12  14
ATOM     14  C   LIG d   1      12.218  15.616   4.497  0.00  0.00     0.008 A 
ATOM     15  C   LIG d   1      11.511  15.068   5.574  0.00  0.00     0.024 A 
ATOM     16  C   LIG d   1      11.814  15.415   6.897  0.00  0.00     0.017 A 
ATOM     17  C   LIG d   1      12.858  16.306   7.171  0.00  0.00     0.009 A 
ATOM     18  C   LIG d   1      13.606  16.817   6.110  0.00  0.00     0.017 A 
ATOM     19  C   LIG d   1      13.294  16.465   4.792  0.00  0.00     0.024 A 
BRANCH  17  20
ATOM     20  C   LIG d   1      13.169  16.704   8.565  0.00  0.00     0.123 C 
ATOM     21  N   LIG d   1      13.820  17.828   8.779  0.00  0.00    -0.284 NA
ATOM     22  H   LIG d   1      14.005  18.047   9.765  0.00  0.00     0.188 HD
BRANCH  20  23
ATOM     23  N   LIG d   1      12.814  16.009   9.574  0.00  0.00    -0.384 N 
ATOM     24  H   LIG d   1      13.273  16.208  10.456  0.00  0.00     0.157 HD
ATOM     25  H   LIG d   1      12.073  15.323   9.520  0.00  0.00     0.157 HD
ENDBRANCH  20  23
ENDBRANCH  17  20
ENDBRANCH  12  14
ENDBRANCH  11  12
ENDBRANCH   4  11
BRANCH   6  26
ATOM     26  C   LIG d   1       8.012  21.133  -0.478  0.00  0.00     0.259 C 
ATOM     27  O   LIG d   1       6.972  21.043  -1.139  0.00  0.00    -0.267 OA
ATOM     28  N   LIG d   1       8.969  22.135  -0.693  0.00  0.00    -0.298 N 
BRANCH  28  29
ATOM     29  C   LIG d   1       8.877  22.885  -1.958  0.00  0.00     0.144 C 
BRANCH  29  30
ATOM     30  C   LIG d   1       8.506  24.350  -1.761  0.00  0.00     0.133 C 
BRANCH  30  31
ATOM     31  C   LIG d   1       7.043  24.570  -1.412  0.00  0.00     0.174 C 
ATOM     32  O   LIG d   1       6.838  25.262  -0.376  0.00  0.00    -0.648 OA
ATOM     33  O   LIG d   1       6.201  24.065  -2.208  0.00  0.00    -0.648 OA
ENDBRANCH  30  31
ENDBRANCH  29  30
ENDBRANCH  28  29
BRANCH  28  34
ATOM     34  C   LIG d   1       9.764  22.666   0.366  0.00  0.00     0.132 A 
ATOM     35  N   LIG d   1       9.134  23.331   1.368  0.00  0.00    -0.243 NA
ATOM     36  C   LIG d   1       9.885  23.846   2.367  0.00  0.00     0.119 A 
ATOM     37  C   LIG d   1      11.261  23.745   2.432  0.00  0.00     0.019 A 
ATOM     38  C   LIG d   1      11.904  23.068   1.410  0.00  0.00     0.005 A 
ATOM     39  C   LIG d   1      11.151  22.525   0.369  0.00  0.00     0.051 A 
ENDBRANCH  28  34
ENDBRANCH   6  26
TORSDOF 10
ENDMDL
MODEL 6
REMARK VINA RESULT:      -7.4      6.255      9.042
REMARK  10 active torsions:
REMARK  status: ('A' for Active; 'I' for Inactive)
REMARK       I    between atoms: N_6  and  C_20 
REMARK    1  A    between atoms: N_6  and  C_21 
REMARK    2  A    between atoms: N_6  and  C_24 
REMARK    3  A    between atoms: N_7  and  C_14 
REMARK    4  A    between atoms: N_7  and  C_22 
REMARK    5  A    between atoms: N_9  and  C_35 
REMARK    6  A    between atoms: C_12  and  C_14 
REMARK    7  A    between atoms: C_15  and  C_20 
REMARK    8  A    between atoms: C_21  and  C_23 
REMARK    9  A    between atoms: C_23  and  C_31 
REMARK   10  A    between atoms: C_30  and  C_35 
ROOT
ATOM      1  N   LIG d   1      13.021  -3.917 -12.291  0.00  0.00    -0.337 N 
ATOM      2  N   LIG d   1      14.466  -2.339 -11.707  0.00  0.00    -0.232 NA
ATOM      3  C   LIG d   1      13.011  -3.901 -10.916  0.00  0.00     0.064 A 
ATOM      4  C   LIG d   1      13.952  -3.000 -12.728  0.00  0.00     0.120 A 
ATOM      5  C   LIG d   1      13.895  -2.878 -10.580  0.00  0.00     0.086 A 
ATOM      6  C   LIG d   1      13.422  -3.280  -8.246  0.00  0.00     0.035 A 
ATOM      7  C   LIG d   1      14.085  -2.533  -9.234  0.00  0.00     0.051 A 
ATOM      8  C   LIG d   1      12.317  -4.643  -9.954  0.00  0.00     0.033 A 
ATOM      9  C   LIG d   1      12.545  -4.313  -8.613  0.00  0.00     0.019 A 
ATOM     10  C   LIG d   1      12.176  -4.726 -13.135  0.00  0.00     0.158 C 
ENDROOT
BRANCH   4  11
ATOM     11  C   LIG d   1      14.306  -2.770 -14.169  0.00  0.00     0.171 C 
BRANCH  11  12
ATOM     12  N   LIG d   1      13.654  -1.588 -14.730  0.00  0.00    -0.286 NA
ATOM     13  H   LIG d   1      12.709  -1.513 -14.346  0.00  0.00     0.128 HD
BRANCH  12  14
ATOM     14  C   LIG d   1      14.324  -0.360 -14.686  0.00  0.00     0.008 A 
ATOM     15  C   LIG d   1      15.372  -0.027 -15.555  0.00  0.00     0.024 A 
ATOM     16  C   LIG d   1      15.960   1.245 -15.532  0.00  0.00     0.017 A 
ATOM     17  C   LIG d   1      15.490   2.224 -14.651  0.00  0.00     0.009 A 
ATOM     18  C   LIG d   1      14.411   1.923 -13.818  0.00  0.00     0.017 A 
ATOM     19  C   LIG d   1      13.832   0.650 -13.847  0.00  0.00     0.024 A 
BRANCH  17  20
ATOM     20  C   LIG d   1      16.125   3.564 -14.598  0.00  0.00     0.123 C 
ATOM     21  N   LIG d   1      15.358   4.634 -14.582  0.00  0.00    -0.284 NA
ATOM     22  H   LIG d   1      15.857   5.530 -14.545  0.00  0.00     0.188 HD
BRANCH  20  23
ATOM     23  N   LIG d   1      17.389   3.724 -14.547  0.00  0.00    -0.384 N 
ATOM     24  H   LIG d   1      17.745   4.355 -13.838  0.00  0.00     0.157 HD
ATOM     25  H   LIG d   1      18.020   3.210 -15.147  0.00  0.00     0.157 HD
ENDBRANCH  20  23
ENDBRANCH  17  20
ENDBRANCH  12  14
ENDBRANCH  11  12
ENDBRANCH   4  11
BRANCH   6  26
ATOM     26  C   LIG d   1      13.521  -2.935  -6.796  0.00  0.00     0.259 C 
ATOM     27  O   LIG d   1      12.467  -2.604  -6.241  0.00  0.00    -0.267 OA
ATOM     28  N   LIG d   1      14.767  -2.892  -6.155  0.00  0.00    -0.298 N 
BRANCH  28  29
ATOM     29  C   LIG d   1      14.849  -2.116  -4.906  0.00  0.00     0.144 C 
BRANCH  29  30
ATOM     30  C   LIG d   1      15.194  -0.648  -5.133  0.00  0.00     0.133 C 
BRANCH  30  31
ATOM     31  C   LIG d   1      14.211   0.318  -4.494  0.00  0.00     0.174 C 
ATOM     32  O   LIG d   1      14.735   1.317  -3.927  0.00  0.00    -0.648 OA
ATOM     33  O   LIG d   1      12.987   0.033  -4.626  0.00  0.00    -0.648 OA
ENDBRANCH  30  31
ENDBRANCH  29  30
ENDBRANCH  28  29
BRANCH  28  34
ATOM     34  C   LIG d   1      15.811  -3.816  -6.462  0.00  0.00     0.132 A 
ATOM     35  N   LIG d   1      15.614  -5.126  -6.165  0.00  0.00    -0.243 NA
ATOM     36  C   LIG d   1      16.605  -6.002  -6.442  0.00  0.00     0.119 A 
ATOM     37  C   LIG d   1      17.815  -5.648  -7.005  0.00  0.00     0.019 A 
ATOM     38  C   LIG d   1      18.017  -4.312  -7.308  0.00  0.00     0.005 A 
ATOM     39  C   LIG d   1      17.008  -3.389  -7.033  0.00  0.00     0.051 A 
ENDBRANCH  28  34
ENDBRANCH   6  26
TORSDOF 10
ENDMDL
MODEL 7
REMARK VINA RESULT:      -7.4     28.256     31.268
REMARK  10 active torsions:
REMARK  status: ('A' for Active; 'I' for Inactive)
REMARK       I    between atoms: N_6  and  C_20 
REMARK    1  A    between atoms: N_6  and  C_21 
REMARK    2  A    between atoms: N_6  and  C_24 
REMARK    3  A    between atoms: N_7  and  C_14 
REMARK    4  A    between atoms: N_7  and  C_22 
REMARK    5  A    between atoms: N_9  and  C_35 
REMARK    6  A    between atoms: C_12  and  C_14 
REMARK    7  A    between atoms: C_15  and  C_20 
REMARK    8  A    between atoms: C_21  and  C_23 
REMARK    9  A    between atoms: C_23  and  C_31 
REMARK   10  A    between atoms: C_30  and  C_35 
ROOT
ATOM      1  N   LIG d   1       7.726  -1.794  19.902  0.00  0.00    -0.337 N 
ATOM      2  N   LIG d   1       8.309  -2.200  22.003  0.00  0.00    -0.232 NA
ATOM      3  C   LIG d   1       7.875  -0.558  20.488  0.00  0.00     0.064 A 
ATOM      4  C   LIG d   1       7.942  -2.757  20.864  0.00  0.00     0.120 A 
ATOM      5  C   LIG d   1       8.279  -0.844  21.790  0.00  0.00     0.086 A 
ATOM      6  C   LIG d   1       8.424   1.527  22.230  0.00  0.00     0.035 A 
ATOM      7  C   LIG d   1       8.591   0.203  22.670  0.00  0.00     0.051 A 
ATOM      8  C   LIG d   1       7.727   0.751  20.014  0.00  0.00     0.033 A 
ATOM      9  C   LIG d   1       8.005   1.785  20.914  0.00  0.00     0.019 A 
ATOM     10  C   LIG d   1       7.432  -2.044  18.512  0.00  0.00     0.158 C 
ENDROOT
BRANCH   4  11
ATOM     11  C   LIG d   1       7.804  -4.234  20.632  0.00  0.00     0.171 C 
BRANCH  11  12
ATOM     12  N   LIG d   1       6.952  -4.885  21.625  0.00  0.00    -0.286 NA
ATOM     13  H   LIG d   1       6.576  -5.750  21.229  0.00  0.00     0.128 HD
BRANCH  12  14
ATOM     14  C   LIG d   1       7.451  -5.088  22.918  0.00  0.00     0.008 A 
ATOM     15  C   LIG d   1       8.820  -5.143  23.210  0.00  0.00     0.024 A 
ATOM     16  C   LIG d   1       9.278  -5.264  24.529  0.00  0.00     0.017 A 
ATOM     17  C   LIG d   1       8.369  -5.306  25.591  0.00  0.00     0.009 A 
ATOM     18  C   LIG d   1       7.004  -5.197  25.318  0.00  0.00     0.017 A 
ATOM     19  C   LIG d   1       6.557  -5.079  23.997  0.00  0.00     0.024 A 
BRANCH  17  20
ATOM     20  C   LIG d   1       8.841  -5.464  26.988  0.00  0.00     0.123 C 
ATOM     21  N   LIG d   1       8.073  -6.090  27.855  0.00  0.00    -0.284 NA
ATOM     22  H   LIG d   1       8.456  -6.166  28.805  0.00  0.00     0.188 HD
BRANCH  20  23
ATOM     23  N   LIG d   1       9.974  -5.033  27.383  0.00  0.00    -0.384 N 
ATOM     24  H   LIG d   1       9.994  -4.115  27.815  0.00  0.00     0.157 HD
ATOM     25  H   LIG d   1      10.813  -5.594  27.322  0.00  0.00     0.157 HD
ENDBRANCH  20  23
ENDBRANCH  17  20
ENDBRANCH  12  14
ENDBRANCH  11  12
ENDBRANCH   4  11
BRANCH   6  26
ATOM     26  C   LIG d   1       8.796   2.695  23.083  0.00  0.00     0.259 C 
ATOM     27  O   LIG d   1       7.864   3.415  23.458  0.00  0.00    -0.267 OA
ATOM     28  N   LIG d   1      10.142   2.995  23.336  0.00  0.00    -0.298 N 
BRANCH  28  29
ATOM     29  C   LIG d   1      10.450   4.370  23.766  0.00  0.00     0.144 C 
BRANCH  29  30
ATOM     30  C   LIG d   1      11.356   5.114  22.791  0.00  0.00     0.133 C 
BRANCH  30  31
ATOM     31  C   LIG d   1      12.738   5.415  23.348  0.00  0.00     0.174 C 
ATOM     32  O   LIG d   1      12.755   6.181  24.352  0.00  0.00    -0.648 OA
ATOM     33  O   LIG d   1      13.705   4.847  22.767  0.00  0.00    -0.648 OA
ENDBRANCH  30  31
ENDBRANCH  29  30
ENDBRANCH  28  29
BRANCH  28  34
ATOM     34  C   LIG d   1      11.123   1.977  23.529  0.00  0.00     0.132 A 
ATOM     35  N   LIG d   1      10.995   1.160  24.604  0.00  0.00    -0.243 NA
ATOM     36  C   LIG d   1      11.929   0.203  24.798  0.00  0.00     0.119 A 
ATOM     37  C   LIG d   1      13.017   0.005  23.970  0.00  0.00     0.019 A 
ATOM     38  C   LIG d   1      13.149   0.839  22.873  0.00  0.00     0.005 A 
ATOM     39  C   LIG d   1      12.196   1.833  22.651  0.00  0.00     0.051 A 
ENDBRANCH  28  34
ENDBRANCH   6  26
TORSDOF 10
ENDMDL
MODEL 8
REMARK VINA RESULT:      -7.4     29.571     31.982
REMARK  10 active torsions:
REMARK  status: ('A' for Active; 'I' for Inactive)
REMARK       I    between atoms: N_6  and  C_20 
REMARK    1  A    between atoms: N_6  and  C_21 
REMARK    2  A    between atoms: N_6  and  C_24 
REMARK    3  A    between atoms: N_7  and  C_14 
REMARK    4  A    between atoms: N_7  and  C_22 
REMARK    5  A    between atoms: N_9  and  C_35 
REMARK    6  A    between atoms: C_12  and  C_14 
REMARK    7  A    between atoms: C_15  and  C_20 
REMARK    8  A    between atoms: C_21  and  C_23 
REMARK    9  A    between atoms: C_23  and  C_31 
REMARK   10  A    between atoms: C_30  and  C_35 
ROOT
ATOM      1  N   LIG d   1       8.188   1.500  24.422  0.00  0.00    -0.337 N 
ATOM      2  N   LIG d   1       9.993   0.224  24.599  0.00  0.00    -0.232 NA
ATOM      3  C   LIG d   1       7.759   0.338  25.020  0.00  0.00     0.064 A 
ATOM      4  C   LIG d   1       9.528   1.369  24.133  0.00  0.00     0.120 A 
ATOM      5  C   LIG d   1       8.917  -0.425  25.154  0.00  0.00     0.086 A 
ATOM      6  C   LIG d   1       7.616  -2.150  26.233  0.00  0.00     0.035 A 
ATOM      7  C   LIG d   1       8.863  -1.671  25.796  0.00  0.00     0.051 A 
ATOM      8  C   LIG d   1       6.510  -0.103  25.472  0.00  0.00     0.033 A 
ATOM      9  C   LIG d   1       6.464  -1.364  26.076  0.00  0.00     0.019 A 
ATOM     10  C   LIG d   1       7.384   2.671  24.171  0.00  0.00     0.158 C 
ENDROOT
BRANCH   4  11
ATOM     11  C   LIG d   1      10.347   2.401  23.413  0.00  0.00     0.171 C 
BRANCH  11  12
ATOM     12  N   LIG d   1      10.574   2.066  22.009  0.00  0.00    -0.286 NA
ATOM     13  H   LIG d   1      11.540   1.751  21.892  0.00  0.00     0.128 HD
BRANCH  12  14
ATOM     14  C   LIG d   1       9.674   1.209  21.363  0.00  0.00     0.008 A 
ATOM     15  C   LIG d   1       8.425   1.628  20.887  0.00  0.00     0.024 A 
ATOM     16  C   LIG d   1       7.589   0.759  20.173  0.00  0.00     0.017 A 
ATOM     17  C   LIG d   1       8.002  -0.549  19.896  0.00  0.00     0.009 A 
ATOM     18  C   LIG d   1       9.267  -0.962  20.318  0.00  0.00     0.017 A 
ATOM     19  C   LIG d   1      10.093  -0.087  21.032  0.00  0.00     0.024 A 
BRANCH  17  20
ATOM     20  C   LIG d   1       7.114  -1.486  19.167  0.00  0.00     0.123 C 
ATOM     21  N   LIG d   1       6.764  -2.616  19.746  0.00  0.00    -0.284 NA
ATOM     22  H   LIG d   1       6.149  -3.221  19.189  0.00  0.00     0.188 HD
BRANCH  20  23
ATOM     23  N   LIG d   1       6.656  -1.235  18.004  0.00  0.00    -0.384 N 
ATOM     24  H   LIG d   1       5.993  -0.471  17.924  0.00  0.00     0.157 HD
ATOM     25  H   LIG d   1       6.972  -1.734  17.183  0.00  0.00     0.157 HD
ENDBRANCH  20  23
ENDBRANCH  17  20
ENDBRANCH  12  14
ENDBRANCH  11  12
ENDBRANCH   4  11
BRANCH   6  26
ATOM     26  C   LIG d   1       7.484  -3.436  26.982  0.00  0.00     0.259 C 
ATOM     27  O   LIG d   1       7.139  -3.345  28.166  0.00  0.00    -0.267 OA
ATOM     28  N   LIG d   1       7.843  -4.651  26.383  0.00  0.00    -0.298 N 
BRANCH  28  29
ATOM     29  C   LIG d   1       8.133  -5.780  27.284  0.00  0.00     0.144 C 
BRANCH  29  30
ATOM     30  C   LIG d   1       6.877  -6.475  27.799  0.00  0.00     0.133 C 
BRANCH  30  31
ATOM     31  C   LIG d   1       6.854  -6.660  29.307  0.00  0.00     0.174 C 
ATOM     32  O   LIG d   1       7.824  -6.138  29.925  0.00  0.00    -0.648 OA
ATOM     33  O   LIG d   1       5.860  -7.284  29.774  0.00  0.00    -0.648 OA
ENDBRANCH  30  31
ENDBRANCH  29  30
ENDBRANCH  28  29
BRANCH  28  34
ATOM     34  C   LIG d   1       7.601  -4.918  25.002  0.00  0.00     0.132 A 
ATOM     35  N   LIG d   1       6.325  -5.164  24.611  0.00  0.00    -0.243 NA
ATOM     36  C   LIG d   1       6.093  -5.430  23.306  0.00  0.00     0.119 A 
ATOM     37  C   LIG d   1       7.078  -5.472  22.339  0.00  0.00     0.019 A 
ATOM     38  C   LIG d   1       8.381  -5.221  22.737  0.00  0.00     0.005 A 
ATOM     39  C   LIG d   1       8.644  -4.943  24.078  0.00  0.00     0.051 A 
ENDBRANCH  28  34
ENDBRANCH   6  26
TORSDOF 10
ENDMDL
MODEL 9
REMARK VINA RESULT:      -7.3      4.712     10.088
REMARK  10 active torsions:
REMARK  status: ('A' for Active; 'I' for Inactive)
REMARK       I    between atoms: N_6  and  C_20 
REMARK    1  A    between atoms: N_6  and  C_21 
REMARK    2  A    between atoms: N_6  and  C_24 
REMARK    3  A    between atoms: N_7  and  C_14 
REMARK    4  A    between atoms: N_7  and  C_22 
REMARK    5  A    between atoms: N_9  and  C_35 
REMARK    6  A    between atoms: C_12  and  C_14 
REMARK    7  A    between atoms: C_15  and  C_20 
REMARK    8  A    between atoms: C_21  and  C_23 
REMARK    9  A    between atoms: C_23  and  C_31 
REMARK   10  A    between atoms: C_30  and  C_35 
ROOT
ATOM      1  N   LIG d   1      20.803  -0.195  -5.685  0.00  0.00    -0.337 N 
ATOM      2  N   LIG d   1      20.070   1.196  -7.249  0.00  0.00    -0.232 NA
ATOM      3  C   LIG d   1      21.359   1.026  -5.381  0.00  0.00     0.064 A 
ATOM      4  C   LIG d   1      20.079  -0.062  -6.850  0.00  0.00     0.120 A 
ATOM      5  C   LIG d   1      20.851   1.884  -6.354  0.00  0.00     0.086 A 
ATOM      6  C   LIG d   1      22.043   3.711  -5.316  0.00  0.00     0.035 A 
ATOM      7  C   LIG d   1      21.164   3.251  -6.311  0.00  0.00     0.051 A 
ATOM      8  C   LIG d   1      22.215   1.462  -4.363  0.00  0.00     0.033 A 
ATOM      9  C   LIG d   1      22.548   2.821  -4.355  0.00  0.00     0.019 A 
ATOM     10  C   LIG d   1      20.924  -1.401  -4.903  0.00  0.00     0.158 C 
ENDROOT
BRANCH   4  11
ATOM     11  C   LIG d   1      19.376  -1.192  -7.546  0.00  0.00     0.171 C 
BRANCH  11  12
ATOM     12  N   LIG d   1      18.571  -2.004  -6.636  0.00  0.00    -0.286 NA
ATOM     13  H   LIG d   1      19.106  -2.178  -5.781  0.00  0.00     0.128 HD
BRANCH  12  14
ATOM     14  C   LIG d   1      17.260  -1.604  -6.349  0.00  0.00     0.008 A 
ATOM     15  C   LIG d   1      16.425  -2.294  -5.462  0.00  0.00     0.024 A 
ATOM     16  C   LIG d   1      15.149  -1.813  -5.139  0.00  0.00     0.017 A 
ATOM     17  C   LIG d   1      14.691  -0.608  -5.682  0.00  0.00     0.009 A 
ATOM     18  C   LIG d   1      15.535   0.118  -6.525  0.00  0.00     0.017 A 
ATOM     19  C   LIG d   1      16.807  -0.372  -6.842  0.00  0.00     0.024 A 
BRANCH  17  20
ATOM     20  C   LIG d   1      13.332  -0.103  -5.371  0.00  0.00     0.123 C 
ATOM     21  N   LIG d   1      12.319  -0.944  -5.391  0.00  0.00    -0.284 NA
ATOM     22  H   LIG d   1      11.404  -0.533  -5.167  0.00  0.00     0.188 HD
BRANCH  20  23
ATOM     23  N   LIG d   1      13.103   1.113  -5.064  0.00  0.00    -0.384 N 
ATOM     24  H   LIG d   1      12.945   1.760  -5.829  0.00  0.00     0.157 HD
ATOM     25  H   LIG d   1      13.029   1.420  -4.104  0.00  0.00     0.157 HD
ENDBRANCH  20  23
ENDBRANCH  17  20
ENDBRANCH  12  14
ENDBRANCH  11  12
ENDBRANCH   4  11
BRANCH   6  26
ATOM     26  C   LIG d   1      22.374   5.160  -5.163  0.00  0.00     0.259 C 
ATOM     27  O   LIG d   1      23.556   5.471  -5.345  0.00  0.00    -0.267 OA
ATOM     28  N   LIG d   1      21.401   6.072  -4.731  0.00  0.00    -0.298 N 
BRANCH  28  29
ATOM     29  C   LIG d   1      21.885   7.344  -4.165  0.00  0.00     0.144 C 
BRANCH  29  30
ATOM     30  C   LIG d   1      21.352   7.617  -2.762  0.00  0.00     0.133 C 
BRANCH  30  31
ATOM     31  C   LIG d   1      20.516   8.882  -2.660  0.00  0.00     0.174 C 
ATOM     32  O   LIG d   1      20.120   9.352  -3.763  0.00  0.00    -0.648 OA
ATOM     33  O   LIG d   1      20.287   9.302  -1.491  0.00  0.00    -0.648 OA
ENDBRANCH  30  31
ENDBRANCH  29  30
ENDBRANCH  28  29
BRANCH  28  34
ATOM     34  C   LIG d   1      20.035   5.971  -5.129  0.00  0.00     0.132 A 
ATOM     35  N   LIG d   1      19.159   5.394  -4.268  0.00  0.00    -0.243 NA
ATOM     36  C   LIG d   1      17.866   5.285  -4.645  0.00  0.00     0.119 A 
ATOM     37  C   LIG d   1      17.375   5.719  -5.861  0.00  0.00     0.019 A 
ATOM     38  C   LIG d   1      18.269   6.308  -6.741  0.00  0.00     0.005 A 
ATOM     39  C   LIG d   1      19.609   6.434  -6.372  0.00  0.00     0.051 A 
ENDBRANCH  28  34
ENDBRANCH   6  26
TORSDOF 10
ENDMDL
