REMARK  13 active torsions:
REMARK  status: ('A' for Active; 'I' for Inactive)
REMARK    1  A    between atoms: O_4  and  C_21 
REMARK    2  A    between atoms: O_4  and  C_27 
REMARK    3  A    between atoms: O_5  and  C_43 
REMARK    4  A    between atoms: N_7  and  C_19 
REMARK    5  A    between atoms: N_9  and  C_33 
REMARK    6  A    between atoms: N_10  and  C_39 
REMARK    7  A    between atoms: N_12  and  C_40 
REMARK    8  A    between atoms: N_13  and  C_44 
REMARK    9  A    between atoms: C_15  and  C_19 
REMARK   10  A    between atoms: C_15  and  C_20 
REMARK   11  A    between atoms: C_17  and  C_21 
REMARK   12  A    between atoms: C_40  and  C_45 
REMARK   13  A    between atoms: C_40  and  C_43 
ROOT
ATOM      1  F   LIG d   1       6.342 -10.691   3.757  0.00  0.00    -0.204 F 
ATOM      2  F   LIG d   1       7.970 -15.098   3.628  0.00  0.00    -0.204 F 
ATOM      3  C   LIG d   1       8.138 -11.181   2.281  0.00  0.00     0.032 A 
ATOM      4  C   LIG d   1       7.213 -11.579   3.256  0.00  0.00     0.141 A 
ATOM      5  C   LIG d   1       8.983 -12.173   1.741  0.00  0.00     0.003 A 
ATOM      6  C   LIG d   1       7.160 -12.888   3.726  0.00  0.00     0.059 A 
ATOM      7  C   LIG d   1       8.922 -13.493   2.191  0.00  0.00     0.030 A 
ATOM      8  C   LIG d   1       8.019 -13.834   3.188  0.00  0.00     0.142 A 
ENDROOT
BRANCH   3   9
ATOM      9  C   LIG d   1       8.195  -9.743   1.763  0.00  0.00     0.136 C 
ATOM     10  O   LIG d   1       7.114  -9.571   0.795  0.00  0.00    -0.353 OA
ATOM     11  C   LIG d   1       7.680  -9.699  -0.518  0.00  0.00     0.145 C 
ATOM     12  C   LIG d   1       8.979  -8.934  -0.413  0.00  0.00     0.063 C 
ATOM     13  C   LIG d   1       9.477  -9.405   0.948  0.00  0.00     0.039 C 
BRANCH  12  14
ATOM     14  C   LIG d   1       8.667  -7.437  -0.477  0.00  0.00     0.151 C 
BRANCH  14  15
ATOM     15  O   LIG d   1       9.855  -6.655  -0.586  0.00  0.00    -0.331 OA
BRANCH  15  16
ATOM     16  C   LIG d   1      10.326  -6.181   0.614  0.00  0.00     0.094 A 
ATOM     17  C   LIG d   1      11.572  -6.469   1.157  0.00  0.00     0.026 A 
ATOM     18  C   LIG d   1      11.947  -5.955   2.403  0.00  0.00     0.019 A 
ATOM     19  C   LIG d   1      11.103  -5.142   3.175  0.00  0.00     0.056 A 
ATOM     20  C   LIG d   1       9.869  -4.826   2.578  0.00  0.00     0.019 A 
ATOM     21  C   LIG d   1       9.481  -5.338   1.325  0.00  0.00     0.026 A 
BRANCH  19  22
ATOM     22  N   LIG d   1      11.504  -4.630   4.425  0.00  0.00    -0.345 N 
ATOM     23  C   LIG d   1      12.277  -3.358   4.419  0.00  0.00     0.119 C 
ATOM     24  C   LIG d   1      12.858  -3.035   5.814  0.00  0.00     0.101 C 
ATOM     25  N   LIG d   1      11.790  -2.996   6.838  0.00  0.00    -0.249 NA
ATOM     26  C   LIG d   1      11.078  -4.291   6.902  0.00  0.00     0.101 C 
ATOM     27  C   LIG d   1      10.497  -4.673   5.525  0.00  0.00     0.119 C 
BRANCH  25  28
ATOM     28  C   LIG d   1      12.176  -2.569   8.119  0.00  0.00     0.037 A 
ATOM     29  C   LIG d   1      11.287  -2.401   9.180  0.00  0.00     0.013 A 
ATOM     30  C   LIG d   1      11.733  -2.001  10.446  0.00  0.00     0.019 A 
ATOM     31  C   LIG d   1      13.088  -1.760  10.705  0.00  0.00     0.070 A 
ATOM     32  C   LIG d   1      13.976  -1.887   9.627  0.00  0.00     0.019 A 
ATOM     33  C   LIG d   1      13.524  -2.279   8.359  0.00  0.00     0.013 A 
BRANCH  31  34
ATOM     34  N   LIG d   1      13.539  -1.443  12.008  0.00  0.00    -0.240 N 
ATOM     35  C   LIG d   1      13.866  -0.192  12.513  0.00  0.00     0.352 A 
ATOM     36  O   LIG d   1      13.915   0.879  11.924  0.00  0.00    -0.244 OA
ATOM     37  N   LIG d   1      14.154  -0.404  13.871  0.00  0.00    -0.200 N 
ATOM     38  N   LIG d   1      14.079  -1.748  14.166  0.00  0.00    -0.144 NA
ATOM     39  C   LIG d   1      13.715  -2.289  13.047  0.00  0.00     0.207 A 
BRANCH  37  40
ATOM     40  C   LIG d   1      14.728   0.540  14.833  0.00  0.00     0.137 C 
BRANCH  40  41
ATOM     41  C   LIG d   1      15.205   1.826  14.128  0.00  0.00     0.027 C 
ATOM     42  C   LIG d   1      16.667   1.765  13.703  0.00  0.00     0.002 C 
ENDBRANCH  40  41
BRANCH  40  43
ATOM     43  C   LIG d   1      13.809   0.873  16.045  0.00  0.00     0.133 C 
ATOM     44  C   LIG d   1      14.413   1.877  17.022  0.00  0.00     0.034 C 
BRANCH  43  45
ATOM     45  O   LIG d   1      13.381  -0.303  16.731  0.00  0.00    -0.383 OA
ATOM     46  H   LIG d   1      13.455  -1.064  16.132  0.00  0.00     0.210 HD
ENDBRANCH  43  45
ENDBRANCH  40  43
ENDBRANCH  37  40
ENDBRANCH  31  34
ENDBRANCH  25  28
ENDBRANCH  19  22
ENDBRANCH  15  16
ENDBRANCH  14  15
ENDBRANCH  12  14
BRANCH   9  47
ATOM     47  C   LIG d   1       8.022  -8.725   2.914  0.00  0.00     0.161 C 
BRANCH  47  48
ATOM     48  N   LIG d   1       9.047  -8.793   3.934  0.00  0.00    -0.228 N 
ATOM     49  N   LIG d   1      10.277  -8.288   3.722  0.00  0.00    -0.145 NA
ATOM     50  C   LIG d   1      10.868  -8.542   4.894  0.00  0.00     0.221 A 
ATOM     51  N   LIG d   1      10.073  -9.137   5.832  0.00  0.00    -0.201 NA
ATOM     52  C   LIG d   1       8.927  -9.271   5.203  0.00  0.00     0.197 A 
ENDBRANCH  47  48
ENDBRANCH   9  47
ENDBRANCH   3   9
TORSDOF 13
