MODEL 1
REMARK minimizedAffinity -6.09697819REMARK CNNscore 0.505072117REMARK CNNaffinity 5.48525763REMARK  9 active torsions:
REMARK  status: ('A' for Active; 'I' for Inactive)
REMARK    1  A    between atoms: N_3  and  C_17 
REMARK    2  A    between atoms: N_4  and  C_18 
REMARK       I    between atoms: N_5  and  C_19 
REMARK       I    between atoms: N_6  and  C_20 
REMARK       I    between atoms: N_7  and  C_19 
REMARK       I    between atoms: N_8  and  C_20 
REMARK       I    between atoms: N_9  and  C_21 
REMARK    3  A    between atoms: N_9  and  C_23 
REMARK       I    between atoms: N_10  and  C_22 
REMARK    4  A    between atoms: N_10  and  C_24 
REMARK       I    between atoms: N_11  and  C_21 
REMARK       I    between atoms: N_12  and  C_22 
REMARK    5  A    between atoms: C_13  and  C_14 
REMARK    6  A    between atoms: C_13  and  C_15 
REMARK    7  A    between atoms: C_14  and  C_16 
REMARK    8  A    between atoms: C_15  and  C_17 
REMARK    9  A    between atoms: C_16  and  C_18 
ROOT
ATOM      1  C   LIG d   1      13.773  23.641   8.270  0.00  0.00     0.002 C 
ENDROOT
BRANCH   1   2
ATOM      2  C   LIG d   1      12.890  22.434   7.955  0.00  0.00     0.002 C 
BRANCH   2   3
ATOM      3  C   LIG d   1      13.396  21.177   8.662  0.00  0.00     0.022 C 
BRANCH   3   4
ATOM      4  C   LIG d   1      13.724  20.072   7.660  0.00  0.00     0.152 C 
BRANCH   4   5
ATOM      5  N   LIG d   1      13.290  18.782   8.191  0.00  0.00    -0.261 NA
ATOM      6  C   LIG d   1      14.157  17.944   8.634  0.00  0.00     0.197 C 
ATOM      7  N   LIG d   1      13.712  16.760   9.139  0.00  0.00    -0.190 NA
ATOM      8  N   LIG d   1      15.503  18.112   8.712  0.00  0.00    -0.271 NA
ATOM      9  C   LIG d   1      12.734  16.114   8.594  0.00  0.00     0.180 C 
ATOM     10  N   LIG d   1      12.241  14.911   9.030  0.00  0.00    -0.331 N 
ATOM     11  N   LIG d   1      12.039  16.491   7.477  0.00  0.00    -0.272 NA
ATOM     12  H   LIG d   1      11.907  14.322   8.280  0.00  0.00     0.168 HD
ATOM     13  H   LIG d   1      12.254  17.471   7.271  0.00  0.00     0.127 HD
ATOM     14  H   LIG d   1      11.038  16.413   7.614  0.00  0.00     0.127 HD
ATOM     15  H   LIG d   1      15.790  19.045   8.963  0.00  0.00     0.127 HD
ATOM     16  H   LIG d   1      15.900  17.413   9.328  0.00  0.00     0.127 HD
BRANCH  10  17
ATOM     17  C   LIG d   1      12.537  14.236  10.227  0.00  0.00     0.034 A 
ATOM     18  C   LIG d   1      12.313  14.885  11.451  0.00  0.00     0.031 A 
ATOM     19  C   LIG d   1      12.613  14.261  12.667  0.00  0.00     0.026 A 
ATOM     20  C   LIG d   1      13.154  12.980  12.671  0.00  0.00     0.034 A 
ATOM     21 CL   LIG d   1      13.530  12.211  14.163  0.00  0.00    -0.084 Cl
ATOM     22  C   LIG d   1      13.398  12.321  11.471  0.00  0.00     0.026 A 
ATOM     23  C   LIG d   1      13.093  12.949  10.259  0.00  0.00     0.031 A 
ENDBRANCH  10  17
ENDBRANCH   4   5
ENDBRANCH   3   4
ENDBRANCH   2   3
ENDBRANCH   1   2
BRANCH   1  24
ATOM     24  C   LIG d   1      13.138  24.940   7.776  0.00  0.00     0.022 C 
BRANCH  24  25
ATOM     25  C   LIG d   1      13.920  25.530   6.603  0.00  0.00     0.152 C 
BRANCH  25  26
ATOM     26  N   LIG d   1      13.642  24.782   5.381  0.00  0.00    -0.261 NA
ATOM     27  C   LIG d   1      14.061  25.216   4.246  0.00  0.00     0.197 C 
ATOM     28  N   LIG d   1      13.790  24.498   3.116  0.00  0.00    -0.190 NA
ATOM     29  N   LIG d   1      14.818  26.324   4.029  0.00  0.00    -0.271 NA
ATOM     30  C   LIG d   1      12.736  23.747   3.010  0.00  0.00     0.180 C 
ATOM     31  N   LIG d   1      12.574  23.036   1.855  0.00  0.00    -0.331 N 
ATOM     32  N   LIG d   1      11.794  23.527   3.969  0.00  0.00    -0.272 NA
ATOM     33  H   LIG d   1      13.354  23.167   1.221  0.00  0.00     0.168 HD
ATOM     34  H   LIG d   1      12.139  23.860   4.874  0.00  0.00     0.127 HD
ATOM     35  H   LIG d   1      11.525  22.553   4.027  0.00  0.00     0.127 HD
ATOM     36  H   LIG d   1      15.480  26.530   4.761  0.00  0.00     0.127 HD
ATOM     37  H   LIG d   1      15.248  26.285   3.113  0.00  0.00     0.127 HD
BRANCH  31  38
ATOM     38  C   LIG d   1      11.405  22.608   1.195  0.00  0.00     0.034 A 
ATOM     39  C   LIG d   1      10.666  23.564   0.475  0.00  0.00     0.031 A 
ATOM     40  C   LIG d   1       9.525  23.204  -0.250  0.00  0.00     0.026 A 
ATOM     41  C   LIG d   1       9.112  21.877  -0.269  0.00  0.00     0.034 A 
ATOM     42 CL   LIG d   1       7.712  21.428  -1.162  0.00  0.00    -0.084 Cl
ATOM     43  C   LIG d   1       9.830  20.912   0.429  0.00  0.00     0.026 A 
ATOM     44  C   LIG d   1      10.971  21.278   1.152  0.00  0.00     0.031 A 
ENDBRANCH  31  38
ENDBRANCH  25  26
ENDBRANCH  24  25
ENDBRANCH   1  24
TORSDOF 9
ENDMDL
MODEL 2
REMARK minimizedAffinity -5.44811678REMARK CNNscore 0.41160211REMARK CNNaffinity 5.58765316REMARK  9 active torsions:
REMARK  status: ('A' for Active; 'I' for Inactive)
REMARK    1  A    between atoms: N_3  and  C_17 
REMARK    2  A    between atoms: N_4  and  C_18 
REMARK       I    between atoms: N_5  and  C_19 
REMARK       I    between atoms: N_6  and  C_20 
REMARK       I    between atoms: N_7  and  C_19 
REMARK       I    between atoms: N_8  and  C_20 
REMARK       I    between atoms: N_9  and  C_21 
REMARK    3  A    between atoms: N_9  and  C_23 
REMARK       I    between atoms: N_10  and  C_22 
REMARK    4  A    between atoms: N_10  and  C_24 
REMARK       I    between atoms: N_11  and  C_21 
REMARK       I    between atoms: N_12  and  C_22 
REMARK    5  A    between atoms: C_13  and  C_14 
REMARK    6  A    between atoms: C_13  and  C_15 
REMARK    7  A    between atoms: C_14  and  C_16 
REMARK    8  A    between atoms: C_15  and  C_17 
REMARK    9  A    between atoms: C_16  and  C_18 
ROOT
ATOM      1  C   LIG d   1      14.176  24.660   8.775  0.00  0.00     0.002 C 
ENDROOT
BRANCH   1   2
ATOM      2  C   LIG d   1      14.143  24.217   7.312  0.00  0.00     0.002 C 
BRANCH   2   3
ATOM      3  C   LIG d   1      12.708  24.061   6.812  0.00  0.00     0.022 C 
BRANCH   3   4
ATOM      4  C   LIG d   1      12.621  23.030   5.688  0.00  0.00     0.152 C 
BRANCH   4   5
ATOM      5  N   LIG d   1      11.853  23.579   4.574  0.00  0.00    -0.261 NA
ATOM      6  C   LIG d   1      11.954  23.059   3.404  0.00  0.00     0.197 C 
ATOM      7  N   LIG d   1      11.206  23.586   2.395  0.00  0.00    -0.190 NA
ATOM      8  N   LIG d   1      12.700  21.984   3.041  0.00  0.00    -0.271 NA
ATOM      9  C   LIG d   1      11.021  24.861   2.282  0.00  0.00     0.180 C 
ATOM     10  N   LIG d   1      10.300  25.469   1.287  0.00  0.00    -0.331 N 
ATOM     11  N   LIG d   1      11.532  25.828   3.104  0.00  0.00    -0.272 NA
ATOM     12  H   LIG d   1      10.664  26.375   1.027  0.00  0.00     0.168 HD
ATOM     13  H   LIG d   1      11.890  25.382   3.954  0.00  0.00     0.127 HD
ATOM     14  H   LIG d   1      10.824  26.499   3.378  0.00  0.00     0.127 HD
ATOM     15  H   LIG d   1      12.731  21.248   3.730  0.00  0.00     0.127 HD
ATOM     16  H   LIG d   1      12.395  21.644   2.136  0.00  0.00     0.127 HD
BRANCH  10  17
ATOM     17  C   LIG d   1       9.469  24.866   0.327  0.00  0.00     0.034 A 
ATOM     18  C   LIG d   1       8.149  24.537   0.674  0.00  0.00     0.031 A 
ATOM     19  C   LIG d   1       7.293  23.916  -0.242  0.00  0.00     0.026 A 
ATOM     20  C   LIG d   1       7.754  23.606  -1.517  0.00  0.00     0.034 A 
ATOM     21 CL   LIG d   1       6.706  22.838  -2.645  0.00  0.00    -0.084 Cl
ATOM     22  C   LIG d   1       9.061  23.909  -1.880  0.00  0.00     0.026 A 
ATOM     23  C   LIG d   1       9.911  24.532  -0.961  0.00  0.00     0.031 A 
ENDBRANCH  10  17
ENDBRANCH   4   5
ENDBRANCH   3   4
ENDBRANCH   2   3
ENDBRANCH   1   2
BRANCH   1  24
ATOM     24  C   LIG d   1      13.764  23.523   9.710  0.00  0.00     0.022 C 
BRANCH  24  25
ATOM     25  C   LIG d   1      14.977  22.711  10.163  0.00  0.00     0.152 C 
BRANCH  25  26
ATOM     26  N   LIG d   1      14.901  21.351   9.638  0.00  0.00    -0.261 NA
ATOM     27  C   LIG d   1      15.784  20.929   8.804  0.00  0.00     0.197 C 
ATOM     28  N   LIG d   1      15.695  19.652   8.328  0.00  0.00    -0.190 NA
ATOM     29  N   LIG d   1      16.872  21.611   8.359  0.00  0.00    -0.271 NA
ATOM     30  C   LIG d   1      14.557  19.035   8.213  0.00  0.00     0.180 C 
ATOM     31  N   LIG d   1      14.575  17.746   7.765  0.00  0.00    -0.331 N 
ATOM     32  N   LIG d   1      13.333  19.515   8.567  0.00  0.00    -0.272 NA
ATOM     33  H   LIG d   1      15.521  17.415   7.610  0.00  0.00     0.168 HD
ATOM     34  H   LIG d   1      13.444  20.352   9.147  0.00  0.00     0.127 HD
ATOM     35  H   LIG d   1      12.773  18.821   9.047  0.00  0.00     0.127 HD
ATOM     36  H   LIG d   1      17.285  22.233   9.037  0.00  0.00     0.127 HD
ATOM     37  H   LIG d   1      17.547  20.974   7.953  0.00  0.00     0.127 HD
BRANCH  31  38
ATOM     38  C   LIG d   1      13.618  17.012   7.034  0.00  0.00     0.034 A 
ATOM     39  C   LIG d   1      13.788  16.909   5.643  0.00  0.00     0.031 A 
ATOM     40  C   LIG d   1      12.909  16.154   4.858  0.00  0.00     0.026 A 
ATOM     41  C   LIG d   1      11.851  15.484   5.461  0.00  0.00     0.034 A 
ATOM     42 CL   LIG d   1      10.771  14.550   4.503  0.00  0.00    -0.084 Cl
ATOM     43  C   LIG d   1      11.667  15.564   6.837  0.00  0.00     0.026 A 
ATOM     44  C   LIG d   1      12.549  16.321   7.617  0.00  0.00     0.031 A 
ENDBRANCH  31  38
ENDBRANCH  25  26
ENDBRANCH  24  25
ENDBRANCH   1  24
TORSDOF 9
ENDMDL
MODEL 3
REMARK minimizedAffinity -5.76881981REMARK CNNscore 0.411149442REMARK CNNaffinity 5.50137186REMARK  9 active torsions:
REMARK  status: ('A' for Active; 'I' for Inactive)
REMARK    1  A    between atoms: N_3  and  C_17 
REMARK    2  A    between atoms: N_4  and  C_18 
REMARK       I    between atoms: N_5  and  C_19 
REMARK       I    between atoms: N_6  and  C_20 
REMARK       I    between atoms: N_7  and  C_19 
REMARK       I    between atoms: N_8  and  C_20 
REMARK       I    between atoms: N_9  and  C_21 
REMARK    3  A    between atoms: N_9  and  C_23 
REMARK       I    between atoms: N_10  and  C_22 
REMARK    4  A    between atoms: N_10  and  C_24 
REMARK       I    between atoms: N_11  and  C_21 
REMARK       I    between atoms: N_12  and  C_22 
REMARK    5  A    between atoms: C_13  and  C_14 
REMARK    6  A    between atoms: C_13  and  C_15 
REMARK    7  A    between atoms: C_14  and  C_16 
REMARK    8  A    between atoms: C_15  and  C_17 
REMARK    9  A    between atoms: C_16  and  C_18 
ROOT
ATOM      1  C   LIG d   1      12.947  26.164   4.353  0.00  0.00     0.002 C 
ENDROOT
BRANCH   1   2
ATOM      2  C   LIG d   1      12.505  24.724   4.617  0.00  0.00     0.002 C 
BRANCH   2   3
ATOM      3  C   LIG d   1      13.023  23.778   3.533  0.00  0.00     0.022 C 
BRANCH   3   4
ATOM      4  C   LIG d   1      13.178  22.356   4.067  0.00  0.00     0.152 C 
BRANCH   4   5
ATOM      5  N   LIG d   1      12.159  21.494   3.475  0.00  0.00    -0.261 NA
ATOM      6  C   LIG d   1      12.458  20.299   3.112  0.00  0.00     0.197 C 
ATOM      7  N   LIG d   1      11.475  19.519   2.583  0.00  0.00    -0.190 NA
ATOM      8  N   LIG d   1      13.658  19.675   3.236  0.00  0.00    -0.271 NA
ATOM      9  C   LIG d   1      10.586  20.001   1.777  0.00  0.00     0.180 C 
ATOM     10  N   LIG d   1       9.578  19.279   1.189  0.00  0.00    -0.331 N 
ATOM     11  N   LIG d   1      10.506  21.295   1.342  0.00  0.00    -0.272 NA
ATOM     12  H   LIG d   1       9.339  19.608   0.265  0.00  0.00     0.168 HD
ATOM     13  H   LIG d   1      11.113  21.877   1.927  0.00  0.00     0.127 HD
ATOM     14  H   LIG d   1       9.562  21.658   1.415  0.00  0.00     0.127 HD
ATOM     15  H   LIG d   1      14.152  19.892   4.087  0.00  0.00     0.127 HD
ATOM     16  H   LIG d   1      13.540  18.677   3.109  0.00  0.00     0.127 HD
BRANCH  10  17
ATOM     17  C   LIG d   1       9.179  17.961   1.471  0.00  0.00     0.034 A 
ATOM     18  C   LIG d   1       9.984  16.895   1.038  0.00  0.00     0.031 A 
ATOM     19  C   LIG d   1       9.616  15.567   1.276  0.00  0.00     0.026 A 
ATOM     20  C   LIG d   1       8.427  15.288   1.943  0.00  0.00     0.034 A 
ATOM     21 CL   LIG d   1       7.968  13.656   2.233  0.00  0.00    -0.084 Cl
ATOM     22  C   LIG d   1       7.606  16.326   2.369  0.00  0.00     0.026 A 
ATOM     23  C   LIG d   1       7.981  17.652   2.130  0.00  0.00     0.031 A 
ENDBRANCH  10  17
ENDBRANCH   4   5
ENDBRANCH   3   4
ENDBRANCH   2   3
ENDBRANCH   1   2
BRANCH   1  24
ATOM     24  C   LIG d   1      12.267  26.735   3.109  0.00  0.00     0.022 C 
BRANCH  24  25
ATOM     25  C   LIG d   1      12.378  28.259   3.067  0.00  0.00     0.152 C 
BRANCH  25  26
ATOM     26  N   LIG d   1      13.706  28.683   3.501  0.00  0.00    -0.261 NA
ATOM     27  C   LIG d   1      14.407  29.471   2.765  0.00  0.00     0.197 C 
ATOM     28  N   LIG d   1      15.645  29.857   3.193  0.00  0.00    -0.190 NA
ATOM     29  N   LIG d   1      14.028  30.034   1.588  0.00  0.00    -0.271 NA
ATOM     30  C   LIG d   1      16.373  29.109   3.967  0.00  0.00     0.180 C 
ATOM     31  N   LIG d   1      17.581  29.599   4.373  0.00  0.00    -0.331 N 
ATOM     32  N   LIG d   1      16.028  27.899   4.487  0.00  0.00    -0.272 NA
ATOM     33  H   LIG d   1      17.738  30.541   4.032  0.00  0.00     0.168 HD
ATOM     34  H   LIG d   1      15.022  27.747   4.369  0.00  0.00     0.127 HD
ATOM     35  H   LIG d   1      16.290  27.811   5.461  0.00  0.00     0.127 HD
ATOM     36  H   LIG d   1      13.047  30.261   1.526  0.00  0.00     0.127 HD
ATOM     37  H   LIG d   1      14.624  30.821   1.364  0.00  0.00     0.127 HD
BRANCH  31  38
ATOM     38  C   LIG d   1      18.779  28.935   4.703  0.00  0.00     0.034 A 
ATOM     39  C   LIG d   1      19.084  28.760   6.064  0.00  0.00     0.031 A 
ATOM     40  C   LIG d   1      20.228  28.064   6.469  0.00  0.00     0.026 A 
ATOM     41  C   LIG d   1      21.081  27.527   5.511  0.00  0.00     0.034 A 
ATOM     42 CL   LIG d   1      22.487  26.667   6.003  0.00  0.00    -0.084 Cl
ATOM     43  C   LIG d   1      20.798  27.681   4.158  0.00  0.00     0.026 A 
ATOM     44  C   LIG d   1      19.651  28.377   3.760  0.00  0.00     0.031 A 
ENDBRANCH  31  38
ENDBRANCH  25  26
ENDBRANCH  24  25
ENDBRANCH   1  24
TORSDOF 9
ENDMDL
MODEL 4
REMARK minimizedAffinity -5.86763382REMARK CNNscore 0.363749236REMARK CNNaffinity 5.42754841REMARK  9 active torsions:
REMARK  status: ('A' for Active; 'I' for Inactive)
REMARK    1  A    between atoms: N_3  and  C_17 
REMARK    2  A    between atoms: N_4  and  C_18 
REMARK       I    between atoms: N_5  and  C_19 
REMARK       I    between atoms: N_6  and  C_20 
REMARK       I    between atoms: N_7  and  C_19 
REMARK       I    between atoms: N_8  and  C_20 
REMARK       I    between atoms: N_9  and  C_21 
REMARK    3  A    between atoms: N_9  and  C_23 
REMARK       I    between atoms: N_10  and  C_22 
REMARK    4  A    between atoms: N_10  and  C_24 
REMARK       I    between atoms: N_11  and  C_21 
REMARK       I    between atoms: N_12  and  C_22 
REMARK    5  A    between atoms: C_13  and  C_14 
REMARK    6  A    between atoms: C_13  and  C_15 
REMARK    7  A    between atoms: C_14  and  C_16 
REMARK    8  A    between atoms: C_15  and  C_17 
REMARK    9  A    between atoms: C_16  and  C_18 
ROOT
ATOM      1  C   LIG d   1       7.128  16.320   5.146  0.00  0.00     0.002 C 
ENDROOT
BRANCH   1   2
ATOM      2  C   LIG d   1       6.098  15.861   6.179  0.00  0.00     0.002 C 
BRANCH   2   3
ATOM      3  C   LIG d   1       4.675  16.179   5.722  0.00  0.00     0.022 C 
BRANCH   3   4
ATOM      4  C   LIG d   1       3.682  15.141   6.239  0.00  0.00     0.152 C 
BRANCH   4   5
ATOM      5  N   LIG d   1       3.902  13.867   5.560  0.00  0.00    -0.261 NA
ATOM      6  C   LIG d   1       4.032  12.787   6.244  0.00  0.00     0.197 C 
ATOM      7  N   LIG d   1       4.216  11.616   5.573  0.00  0.00    -0.190 NA
ATOM      8  N   LIG d   1       3.959  12.651   7.593  0.00  0.00    -0.271 NA
ATOM      9  C   LIG d   1       4.962  11.547   4.519  0.00  0.00     0.180 C 
ATOM     10  N   LIG d   1       5.213  10.406   3.802  0.00  0.00    -0.331 N 
ATOM     11  N   LIG d   1       5.658  12.580   3.952  0.00  0.00    -0.272 NA
ATOM     12  H   LIG d   1       6.140  10.382   3.400  0.00  0.00     0.168 HD
ATOM     13  H   LIG d   1       5.317  13.462   4.347  0.00  0.00     0.127 HD
ATOM     14  H   LIG d   1       5.523  12.616   2.948  0.00  0.00     0.127 HD
ATOM     15  H   LIG d   1       3.264  13.235   8.032  0.00  0.00     0.127 HD
ATOM     16  H   LIG d   1       3.841  11.674   7.833  0.00  0.00     0.127 HD
BRANCH  10  17
ATOM     17  C   LIG d   1       4.587   9.153   3.921  0.00  0.00     0.034 A 
ATOM     18  C   LIG d   1       5.193   8.158   4.706  0.00  0.00     0.031 A 
ATOM     19  C   LIG d   1       4.618   6.889   4.837  0.00  0.00     0.026 A 
ATOM     20  C   LIG d   1       3.432   6.596   4.172  0.00  0.00     0.034 A 
ATOM     21 CL   LIG d   1       2.724   5.036   4.325  0.00  0.00    -0.084 Cl
ATOM     22  C   LIG d   1       2.820   7.560   3.378  0.00  0.00     0.026 A 
ATOM     23  C   LIG d   1       3.398   8.827   3.253  0.00  0.00     0.031 A 
ENDBRANCH  10  17
ENDBRANCH   4   5
ENDBRANCH   3   4
ENDBRANCH   2   3
ENDBRANCH   1   2
BRANCH   1  24
ATOM     24  C   LIG d   1       8.491  15.674   5.394  0.00  0.00     0.022 C 
BRANCH  24  25
ATOM     25  C   LIG d   1       8.999  14.953   4.147  0.00  0.00     0.152 C 
BRANCH  25  26
ATOM     26  N   LIG d   1       9.156  15.897   3.044  0.00  0.00    -0.261 NA
ATOM     27  C   LIG d   1      10.165  15.807   2.253  0.00  0.00     0.197 C 
ATOM     28  N   LIG d   1      10.289  16.699   1.226  0.00  0.00    -0.190 NA
ATOM     29  N   LIG d   1      11.138  14.859   2.282  0.00  0.00    -0.271 NA
ATOM     30  C   LIG d   1       9.809  17.904   1.296  0.00  0.00     0.180 C 
ATOM     31  N   LIG d   1       9.949  18.710   0.202  0.00  0.00    -0.331 N 
ATOM     32  N   LIG d   1       9.104  18.440   2.331  0.00  0.00    -0.272 NA
ATOM     33  H   LIG d   1      10.396  18.223  -0.567  0.00  0.00     0.168 HD
ATOM     34  H   LIG d   1       8.805  17.695   2.967  0.00  0.00     0.127 HD
ATOM     35  H   LIG d   1       8.308  18.979   2.014  0.00  0.00     0.127 HD
ATOM     36  H   LIG d   1      10.827  13.945   2.575  0.00  0.00     0.127 HD
ATOM     37  H   LIG d   1      11.638  14.837   1.402  0.00  0.00     0.127 HD
BRANCH  31  38
ATOM     38  C   LIG d   1      10.067  20.110   0.100  0.00  0.00     0.034 A 
ATOM     39  C   LIG d   1       9.048  20.811  -0.567  0.00  0.00     0.031 A 
ATOM     40  C   LIG d   1       9.068  22.207  -0.662  0.00  0.00     0.026 A 
ATOM     41  C   LIG d   1      10.111  22.921  -0.081  0.00  0.00     0.034 A 
ATOM     42 CL   LIG d   1      10.139  24.637  -0.191  0.00  0.00    -0.084 Cl
ATOM     43  C   LIG d   1      11.127  22.250   0.590  0.00  0.00     0.026 A 
ATOM     44  C   LIG d   1      11.101  20.854   0.683  0.00  0.00     0.031 A 
ENDBRANCH  31  38
ENDBRANCH  25  26
ENDBRANCH  24  25
ENDBRANCH   1  24
TORSDOF 9
ENDMDL
MODEL 5
REMARK minimizedAffinity -5.4419837REMARK CNNscore 0.321838766REMARK CNNaffinity 4.97786188REMARK  9 active torsions:
REMARK  status: ('A' for Active; 'I' for Inactive)
REMARK    1  A    between atoms: N_3  and  C_17 
REMARK    2  A    between atoms: N_4  and  C_18 
REMARK       I    between atoms: N_5  and  C_19 
REMARK       I    between atoms: N_6  and  C_20 
REMARK       I    between atoms: N_7  and  C_19 
REMARK       I    between atoms: N_8  and  C_20 
REMARK       I    between atoms: N_9  and  C_21 
REMARK    3  A    between atoms: N_9  and  C_23 
REMARK       I    between atoms: N_10  and  C_22 
REMARK    4  A    between atoms: N_10  and  C_24 
REMARK       I    between atoms: N_11  and  C_21 
REMARK       I    between atoms: N_12  and  C_22 
REMARK    5  A    between atoms: C_13  and  C_14 
REMARK    6  A    between atoms: C_13  and  C_15 
REMARK    7  A    between atoms: C_14  and  C_16 
REMARK    8  A    between atoms: C_15  and  C_17 
REMARK    9  A    between atoms: C_16  and  C_18 
ROOT
ATOM      1  C   LIG d   1      -0.438  25.224 -17.505  0.00  0.00     0.002 C 
ENDROOT
BRANCH   1   2
ATOM      2  C   LIG d   1      -1.215  24.087 -18.172  0.00  0.00     0.002 C 
BRANCH   2   3
ATOM      3  C   LIG d   1      -1.835  23.155 -17.131  0.00  0.00     0.022 C 
BRANCH   3   4
ATOM      4  C   LIG d   1      -2.620  23.940 -16.082  0.00  0.00     0.152 C 
BRANCH   4   5
ATOM      5  N   LIG d   1      -2.805  23.119 -14.889  0.00  0.00    -0.261 NA
ATOM      6  C   LIG d   1      -3.964  22.640 -14.611  0.00  0.00     0.197 C 
ATOM      7  N   LIG d   1      -4.092  21.862 -13.500  0.00  0.00    -0.190 NA
ATOM      8  N   LIG d   1      -5.107  22.774 -15.332  0.00  0.00    -0.271 NA
ATOM      9  C   LIG d   1      -3.469  22.139 -12.402  0.00  0.00     0.180 C 
ATOM     10  N   LIG d   1      -3.560  21.419 -11.238  0.00  0.00    -0.331 N 
ATOM     11  N   LIG d   1      -2.641  23.207 -12.189  0.00  0.00    -0.272 NA
ATOM     12  H   LIG d   1      -3.486  21.990 -10.408  0.00  0.00     0.168 HD
ATOM     13  H   LIG d   1      -2.404  23.624 -13.095  0.00  0.00     0.127 HD
ATOM     14  H   LIG d   1      -1.776  22.927 -11.739  0.00  0.00     0.127 HD
ATOM     15  H   LIG d   1      -4.973  22.747 -16.331  0.00  0.00     0.127 HD
ATOM     16  H   LIG d   1      -5.790  22.092 -15.022  0.00  0.00     0.127 HD
BRANCH  10  17
ATOM     17  C   LIG d   1      -4.162  20.164 -11.041  0.00  0.00     0.034 A 
ATOM     18  C   LIG d   1      -3.434  19.002 -11.342  0.00  0.00     0.031 A 
ATOM     19  C   LIG d   1      -3.999  17.731 -11.183  0.00  0.00     0.026 A 
ATOM     20  C   LIG d   1      -5.308  17.610 -10.730  0.00  0.00     0.034 A 
ATOM     21 CL   LIG d   1      -6.009  16.051 -10.538  0.00  0.00    -0.084 Cl
ATOM     22  C   LIG d   1      -6.055  18.746 -10.439  0.00  0.00     0.026 A 
ATOM     23  C   LIG d   1      -5.483  20.012 -10.597  0.00  0.00     0.031 A 
ENDBRANCH  10  17
ENDBRANCH   4   5
ENDBRANCH   3   4
ENDBRANCH   2   3
ENDBRANCH   1   2
BRANCH   1  24
ATOM     24  C   LIG d   1      -1.103  26.576 -17.759  0.00  0.00     0.022 C 
BRANCH  24  25
ATOM     25  C   LIG d   1      -1.205  27.395 -16.473  0.00  0.00     0.152 C 
BRANCH  25  26
ATOM     26  N   LIG d   1       0.002  27.227 -15.669  0.00  0.00    -0.261 NA
ATOM     27  C   LIG d   1       0.006  27.566 -14.429  0.00  0.00     0.197 C 
ATOM     28  N   LIG d   1       1.146  27.397 -13.696  0.00  0.00    -0.190 NA
ATOM     29  N   LIG d   1      -1.046  28.042 -13.713  0.00  0.00    -0.271 NA
ATOM     30  C   LIG d   1       2.328  27.442 -14.235  0.00  0.00     0.180 C 
ATOM     31  N   LIG d   1       3.405  27.222 -13.425  0.00  0.00    -0.331 N 
ATOM     32  N   LIG d   1       2.613  27.614 -15.554  0.00  0.00    -0.272 NA
ATOM     33  H   LIG d   1       3.124  27.005 -12.475  0.00  0.00     0.168 HD
ATOM     34  H   LIG d   1       1.764  27.484 -16.112  0.00  0.00     0.127 HD
ATOM     35  H   LIG d   1       3.347  26.993 -15.873  0.00  0.00     0.127 HD
ATOM     36  H   LIG d   1      -1.942  27.664 -13.980  0.00  0.00     0.127 HD
ATOM     37  H   LIG d   1      -0.867  27.955 -12.720  0.00  0.00     0.127 HD
BRANCH  31  38
ATOM     38  C   LIG d   1       4.727  27.705 -13.501  0.00  0.00     0.034 A 
ATOM     39  C   LIG d   1       4.935  29.086 -13.346  0.00  0.00     0.031 A 
ATOM     40  C   LIG d   1       6.223  29.633 -13.356  0.00  0.00     0.026 A 
ATOM     41  C   LIG d   1       7.323  28.798 -13.515  0.00  0.00     0.034 A 
ATOM     42 CL   LIG d   1       8.909  29.464 -13.524  0.00  0.00    -0.084 Cl
ATOM     43  C   LIG d   1       7.144  27.427 -13.664  0.00  0.00     0.026 A 
ATOM     44  C   LIG d   1       5.853  26.886 -13.652  0.00  0.00     0.031 A 
ENDBRANCH  31  38
ENDBRANCH  25  26
ENDBRANCH  24  25
ENDBRANCH   1  24
TORSDOF 9
ENDMDL
MODEL 6
REMARK minimizedAffinity -4.40901756REMARK CNNscore 0.304395765REMARK CNNaffinity 5.67226839REMARK  9 active torsions:
REMARK  status: ('A' for Active; 'I' for Inactive)
REMARK    1  A    between atoms: N_3  and  C_17 
REMARK    2  A    between atoms: N_4  and  C_18 
REMARK       I    between atoms: N_5  and  C_19 
REMARK       I    between atoms: N_6  and  C_20 
REMARK       I    between atoms: N_7  and  C_19 
REMARK       I    between atoms: N_8  and  C_20 
REMARK       I    between atoms: N_9  and  C_21 
REMARK    3  A    between atoms: N_9  and  C_23 
REMARK       I    between atoms: N_10  and  C_22 
REMARK    4  A    between atoms: N_10  and  C_24 
REMARK       I    between atoms: N_11  and  C_21 
REMARK       I    between atoms: N_12  and  C_22 
REMARK    5  A    between atoms: C_13  and  C_14 
REMARK    6  A    between atoms: C_13  and  C_15 
REMARK    7  A    between atoms: C_14  and  C_16 
REMARK    8  A    between atoms: C_15  and  C_17 
REMARK    9  A    between atoms: C_16  and  C_18 
ROOT
ATOM      1  C   LIG d   1      17.409  -9.830 -15.901  0.00  0.00     0.002 C 
ENDROOT
BRANCH   1   2
ATOM      2  C   LIG d   1      17.859  -8.610 -16.705  0.00  0.00     0.002 C 
BRANCH   2   3
ATOM      3  C   LIG d   1      18.288  -7.467 -15.785  0.00  0.00     0.022 C 
BRANCH   3   4
ATOM      4  C   LIG d   1      17.961  -7.779 -14.326  0.00  0.00     0.152 C 
BRANCH   4   5
ATOM      5  N   LIG d   1      17.554  -6.555 -13.641  0.00  0.00    -0.261 NA
ATOM      6  C   LIG d   1      17.482  -6.528 -12.359  0.00  0.00     0.197 C 
ATOM      7  N   LIG d   1      17.118  -5.363 -11.756  0.00  0.00    -0.190 NA
ATOM      8  N   LIG d   1      17.778  -7.534 -11.495  0.00  0.00    -0.271 NA
ATOM      9  C   LIG d   1      16.200  -4.600 -12.251  0.00  0.00     0.180 C 
ATOM     10  N   LIG d   1      15.764  -3.424 -11.696  0.00  0.00    -0.331 N 
ATOM     11  N   LIG d   1      15.478  -4.838 -13.389  0.00  0.00    -0.272 NA
ATOM     12  H   LIG d   1      14.783  -3.246 -11.856  0.00  0.00     0.168 HD
ATOM     13  H   LIG d   1      15.932  -5.591 -13.914  0.00  0.00     0.127 HD
ATOM     14  H   LIG d   1      15.440  -4.020 -13.987  0.00  0.00     0.127 HD
ATOM     15  H   LIG d   1      18.571  -8.095 -11.766  0.00  0.00     0.127 HD
ATOM     16  H   LIG d   1      17.879  -7.162 -10.558  0.00  0.00     0.127 HD
BRANCH  10  17
ATOM     17  C   LIG d   1      16.328  -2.712 -10.623  0.00  0.00     0.034 A 
ATOM     18  C   LIG d   1      15.509  -2.335  -9.547  0.00  0.00     0.031 A 
ATOM     19  C   LIG d   1      16.021  -1.606  -8.467  0.00  0.00     0.026 A 
ATOM     20  C   LIG d   1      17.362  -1.236  -8.458  0.00  0.00     0.034 A 
ATOM     21 CL   LIG d   1      17.994  -0.336  -7.136  0.00  0.00    -0.084 Cl
ATOM     22  C   LIG d   1      18.190  -1.585  -9.519  0.00  0.00     0.026 A 
ATOM     23  C   LIG d   1      17.673  -2.315 -10.593  0.00  0.00     0.031 A 
ENDBRANCH  10  17
ENDBRANCH   4   5
ENDBRANCH   3   4
ENDBRANCH   2   3
ENDBRANCH   1   2
BRANCH   1  24
ATOM     24  C   LIG d   1      16.009 -10.283 -16.314  0.00  0.00     0.022 C 
BRANCH  24  25
ATOM     25  C   LIG d   1      15.327 -11.069 -15.195  0.00  0.00     0.152 C 
BRANCH  25  26
ATOM     26  N   LIG d   1      14.496 -10.182 -14.387  0.00  0.00    -0.261 NA
ATOM     27  C   LIG d   1      13.235 -10.086 -14.620  0.00  0.00     0.197 C 
ATOM     28  N   LIG d   1      12.477  -9.251 -13.849  0.00  0.00    -0.190 NA
ATOM     29  N   LIG d   1      12.524 -10.783 -15.544  0.00  0.00    -0.271 NA
ATOM     30  C   LIG d   1      12.969  -8.185 -13.293  0.00  0.00     0.180 C 
ATOM     31  N   LIG d   1      12.141  -7.436 -12.508  0.00  0.00    -0.331 N 
ATOM     32  N   LIG d   1      14.263  -7.764 -13.347  0.00  0.00    -0.272 NA
ATOM     33  H   LIG d   1      11.219  -7.852 -12.429  0.00  0.00     0.168 HD
ATOM     34  H   LIG d   1      14.857  -8.518 -13.704  0.00  0.00     0.127 HD
ATOM     35  H   LIG d   1      14.599  -7.441 -12.448  0.00  0.00     0.127 HD
ATOM     36  H   LIG d   1      12.849 -11.724 -15.703  0.00  0.00     0.127 HD
ATOM     37  H   LIG d   1      11.534 -10.742 -15.334  0.00  0.00     0.127 HD
BRANCH  31  38
ATOM     38  C   LIG d   1      12.136  -6.054 -12.231  0.00  0.00     0.034 A 
ATOM     39  C   LIG d   1      12.353  -5.646 -10.904  0.00  0.00     0.031 A 
ATOM     40  C   LIG d   1      12.416  -4.291 -10.561  0.00  0.00     0.026 A 
ATOM     41  C   LIG d   1      12.269  -3.324 -11.550  0.00  0.00     0.034 A 
ATOM     42 CL   LIG d   1      12.350  -1.657 -11.136  0.00  0.00    -0.084 Cl
ATOM     43  C   LIG d   1      12.061  -3.703 -12.872  0.00  0.00     0.026 A 
ATOM     44  C   LIG d   1      12.000  -5.060 -13.208  0.00  0.00     0.031 A 
ENDBRANCH  31  38
ENDBRANCH  25  26
ENDBRANCH  24  25
ENDBRANCH   1  24
TORSDOF 9
ENDMDL
MODEL 7
REMARK minimizedAffinity -5.85477257REMARK CNNscore 0.296699613REMARK CNNaffinity 5.15204096REMARK  9 active torsions:
REMARK  status: ('A' for Active; 'I' for Inactive)
REMARK    1  A    between atoms: N_3  and  C_17 
REMARK    2  A    between atoms: N_4  and  C_18 
REMARK       I    between atoms: N_5  and  C_19 
REMARK       I    between atoms: N_6  and  C_20 
REMARK       I    between atoms: N_7  and  C_19 
REMARK       I    between atoms: N_8  and  C_20 
REMARK       I    between atoms: N_9  and  C_21 
REMARK    3  A    between atoms: N_9  and  C_23 
REMARK       I    between atoms: N_10  and  C_22 
REMARK    4  A    between atoms: N_10  and  C_24 
REMARK       I    between atoms: N_11  and  C_21 
REMARK       I    between atoms: N_12  and  C_22 
REMARK    5  A    between atoms: C_13  and  C_14 
REMARK    6  A    between atoms: C_13  and  C_15 
REMARK    7  A    between atoms: C_14  and  C_16 
REMARK    8  A    between atoms: C_15  and  C_17 
REMARK    9  A    between atoms: C_16  and  C_18 
ROOT
ATOM      1  C   LIG d   1       0.193  25.707 -17.887  0.00  0.00     0.002 C 
ENDROOT
BRANCH   1   2
ATOM      2  C   LIG d   1      -0.184  24.230 -17.998  0.00  0.00     0.002 C 
BRANCH   2   3
ATOM      3  C   LIG d   1      -1.042  23.968 -19.235  0.00  0.00     0.022 C 
BRANCH   3   4
ATOM      4  C   LIG d   1      -2.472  23.597 -18.850  0.00  0.00     0.152 C 
BRANCH   4   5
ATOM      5  N   LIG d   1      -2.453  22.527 -17.856  0.00  0.00    -0.261 NA
ATOM      6  C   LIG d   1      -2.812  22.766 -16.646  0.00  0.00     0.197 C 
ATOM      7  N   LIG d   1      -2.799  21.738 -15.753  0.00  0.00    -0.190 NA
ATOM      8  N   LIG d   1      -3.264  23.941 -16.136  0.00  0.00    -0.271 NA
ATOM      9  C   LIG d   1      -1.859  20.851 -15.752  0.00  0.00     0.180 C 
ATOM     10  N   LIG d   1      -1.764  19.799 -14.877  0.00  0.00    -0.331 N 
ATOM     11  N   LIG d   1      -0.780  20.816 -16.593  0.00  0.00    -0.272 NA
ATOM     12  H   LIG d   1      -0.811  19.552 -14.652  0.00  0.00     0.168 HD
ATOM     13  H   LIG d   1      -0.948  21.462 -17.371  0.00  0.00     0.127 HD
ATOM     14  H   LIG d   1      -0.636  19.890 -16.981  0.00  0.00     0.127 HD
ATOM     15  H   LIG d   1      -3.855  24.465 -16.763  0.00  0.00     0.127 HD
ATOM     16  H   LIG d   1      -3.710  23.777 -15.241  0.00  0.00     0.127 HD
BRANCH  10  17
ATOM     17  C   LIG d   1      -2.727  19.351 -13.955  0.00  0.00     0.034 A 
ATOM     18  C   LIG d   1      -3.865  18.680 -14.429  0.00  0.00     0.031 A 
ATOM     19  C   LIG d   1      -4.860  18.234 -13.551  0.00  0.00     0.026 A 
ATOM     20  C   LIG d   1      -4.731  18.466 -12.186  0.00  0.00     0.034 A 
ATOM     21 CL   LIG d   1      -5.953  17.925 -11.103  0.00  0.00    -0.084 Cl
ATOM     22  C   LIG d   1      -3.619  19.141 -11.694  0.00  0.00     0.026 A 
ATOM     23  C   LIG d   1      -2.627  19.581 -12.576  0.00  0.00     0.031 A 
ENDBRANCH  10  17
ENDBRANCH   4   5
ENDBRANCH   3   4
ENDBRANCH   2   3
ENDBRANCH   1   2
BRANCH   1  24
ATOM     24  C   LIG d   1      -1.050  26.596 -17.834  0.00  0.00     0.022 C 
BRANCH  24  25
ATOM     25  C   LIG d   1      -1.221  27.230 -16.455  0.00  0.00     0.152 C 
BRANCH  25  26
ATOM     26  N   LIG d   1       0.000  27.075 -15.670  0.00  0.00    -0.261 NA
ATOM     27  C   LIG d   1      -0.005  27.318 -14.408  0.00  0.00     0.197 C 
ATOM     28  N   LIG d   1       1.149  27.164 -13.694  0.00  0.00    -0.190 NA
ATOM     29  N   LIG d   1      -1.079  27.675 -13.654  0.00  0.00    -0.271 NA
ATOM     30  C   LIG d   1       2.321  27.321 -14.232  0.00  0.00     0.180 C 
ATOM     31  N   LIG d   1       3.416  27.105 -13.446  0.00  0.00    -0.331 N 
ATOM     32  N   LIG d   1       2.584  27.609 -15.536  0.00  0.00    -0.272 NA
ATOM     33  H   LIG d   1       3.156  26.800 -12.514  0.00  0.00     0.168 HD
ATOM     34  H   LIG d   1       1.740  27.470 -16.098  0.00  0.00     0.127 HD
ATOM     35  H   LIG d   1       3.351  27.059 -15.904  0.00  0.00     0.127 HD
ATOM     36  H   LIG d   1      -1.952  27.265 -13.946  0.00  0.00     0.127 HD
ATOM     37  H   LIG d   1      -0.887  27.523 -12.672  0.00  0.00     0.127 HD
BRANCH  31  38
ATOM     38  C   LIG d   1       4.706  27.671 -13.490  0.00  0.00     0.034 A 
ATOM     39  C   LIG d   1       4.883  28.953 -12.940  0.00  0.00     0.031 A 
ATOM     40  C   LIG d   1       6.144  29.557 -12.899  0.00  0.00     0.026 A 
ATOM     41  C   LIG d   1       7.249  28.880 -13.403  0.00  0.00     0.034 A 
ATOM     42 CL   LIG d   1       8.802  29.616 -13.351  0.00  0.00    -0.084 Cl
ATOM     43  C   LIG d   1       7.100  27.608 -13.946  0.00  0.00     0.026 A 
ATOM     44  C   LIG d   1       5.836  27.008 -13.983  0.00  0.00     0.031 A 
ENDBRANCH  31  38
ENDBRANCH  25  26
ENDBRANCH  24  25
ENDBRANCH   1  24
TORSDOF 9
ENDMDL
MODEL 8
REMARK minimizedAffinity -8.15838528REMARK CNNscore 0.289430887REMARK CNNaffinity 5.37733746REMARK  9 active torsions:
REMARK  status: ('A' for Active; 'I' for Inactive)
REMARK    1  A    between atoms: N_3  and  C_17 
REMARK    2  A    between atoms: N_4  and  C_18 
REMARK       I    between atoms: N_5  and  C_19 
REMARK       I    between atoms: N_6  and  C_20 
REMARK       I    between atoms: N_7  and  C_19 
REMARK       I    between atoms: N_8  and  C_20 
REMARK       I    between atoms: N_9  and  C_21 
REMARK    3  A    between atoms: N_9  and  C_23 
REMARK       I    between atoms: N_10  and  C_22 
REMARK    4  A    between atoms: N_10  and  C_24 
REMARK       I    between atoms: N_11  and  C_21 
REMARK       I    between atoms: N_12  and  C_22 
REMARK    5  A    between atoms: C_13  and  C_14 
REMARK    6  A    between atoms: C_13  and  C_15 
REMARK    7  A    between atoms: C_14  and  C_16 
REMARK    8  A    between atoms: C_15  and  C_17 
REMARK    9  A    between atoms: C_16  and  C_18 
ROOT
ATOM      1  C   LIG d   1      17.740   5.285  -5.592  0.00  0.00     0.002 C 
ENDROOT
BRANCH   1   2
ATOM      2  C   LIG d   1      17.321   4.179  -6.562  0.00  0.00     0.002 C 
BRANCH   2   3
ATOM      3  C   LIG d   1      17.512   2.796  -5.941  0.00  0.00     0.022 C 
BRANCH   3   4
ATOM      4  C   LIG d   1      16.223   2.297  -5.292  0.00  0.00     0.152 C 
BRANCH   4   5
ATOM      5  N   LIG d   1      15.909   0.958  -5.785  0.00  0.00    -0.261 NA
ATOM      6  C   LIG d   1      14.694   0.541  -5.787  0.00  0.00     0.197 C 
ATOM      7  N   LIG d   1      14.440  -0.705  -6.274  0.00  0.00    -0.190 NA
ATOM      8  N   LIG d   1      13.587   1.225  -5.399  0.00  0.00    -0.271 NA
ATOM      9  C   LIG d   1      15.232  -1.700  -6.041  0.00  0.00     0.180 C 
ATOM     10  N   LIG d   1      15.037  -2.985  -6.478  0.00  0.00    -0.331 N 
ATOM     11  N   LIG d   1      16.381  -1.662  -5.298  0.00  0.00    -0.272 NA
ATOM     12  H   LIG d   1      15.381  -3.682  -5.833  0.00  0.00     0.168 HD
ATOM     13  H   LIG d   1      16.642  -0.682  -5.147  0.00  0.00     0.127 HD
ATOM     14  H   LIG d   1      17.150  -2.120  -5.773  0.00  0.00     0.127 HD
ATOM     15  H   LIG d   1      13.597   2.204  -5.640  0.00  0.00     0.127 HD
ATOM     16  H   LIG d   1      12.757   0.757  -5.745  0.00  0.00     0.127 HD
BRANCH  10  17
ATOM     17  C   LIG d   1      14.085  -3.451  -7.401  0.00  0.00     0.034 A 
ATOM     18  C   LIG d   1      14.379  -3.396  -8.773  0.00  0.00     0.031 A 
ATOM     19  C   LIG d   1      13.454  -3.828  -9.730  0.00  0.00     0.026 A 
ATOM     20  C   LIG d   1      12.214  -4.311  -9.323  0.00  0.00     0.034 A 
ATOM     21 CL   LIG d   1      11.071  -4.838 -10.495  0.00  0.00    -0.084 Cl
ATOM     22  C   LIG d   1      11.894  -4.362  -7.971  0.00  0.00     0.026 A 
ATOM     23  C   LIG d   1      12.824  -3.931  -7.020  0.00  0.00     0.031 A 
ENDBRANCH  10  17
ENDBRANCH   4   5
ENDBRANCH   3   4
ENDBRANCH   2   3
ENDBRANCH   1   2
BRANCH   1  24
ATOM     24  C   LIG d   1      18.902   6.104  -6.151  0.00  0.00     0.022 C 
BRANCH  24  25
ATOM     25  C   LIG d   1      20.232   5.677  -5.530  0.00  0.00     0.152 C 
BRANCH  25  26
ATOM     26  N   LIG d   1      20.748   6.732  -4.662  0.00  0.00    -0.261 NA
ATOM     27  C   LIG d   1      21.985   7.073  -4.723  0.00  0.00     0.197 C 
ATOM     28  N   LIG d   1      22.444   8.064  -3.903  0.00  0.00    -0.190 NA
ATOM     29  N   LIG d   1      22.922   6.585  -5.578  0.00  0.00    -0.271 NA
ATOM     30  C   LIG d   1      21.913   8.303  -2.742  0.00  0.00     0.180 C 
ATOM     31  N   LIG d   1      22.417   9.341  -2.012  0.00  0.00    -0.331 N 
ATOM     32  N   LIG d   1      20.840   7.669  -2.194  0.00  0.00    -0.272 NA
ATOM     33  H   LIG d   1      23.147   9.834  -2.514  0.00  0.00     0.168 HD
ATOM     34  H   LIG d   1      20.360   7.118  -2.911  0.00  0.00     0.127 HD
ATOM     35  H   LIG d   1      20.198   8.314  -1.751  0.00  0.00     0.127 HD
ATOM     36  H   LIG d   1      22.570   6.338  -6.491  0.00  0.00     0.127 HD
ATOM     37  H   LIG d   1      23.719   7.207  -5.623  0.00  0.00     0.127 HD
BRANCH  31  38
ATOM     38  C   LIG d   1      22.492   9.535  -0.619  0.00  0.00     0.034 A 
ATOM     39  C   LIG d   1      23.764   9.531  -0.020  0.00  0.00     0.031 A 
ATOM     40  C   LIG d   1      23.923   9.770   1.349  0.00  0.00     0.026 A 
ATOM     41  C   LIG d   1      22.806  10.023   2.138  0.00  0.00     0.034 A 
ATOM     42 CL   LIG d   1      22.995  10.322   3.821  0.00  0.00    -0.084 Cl
ATOM     43  C   LIG d   1      21.538  10.040   1.567  0.00  0.00     0.026 A 
ATOM     44  C   LIG d   1      21.385   9.801   0.197  0.00  0.00     0.031 A 
ENDBRANCH  31  38
ENDBRANCH  25  26
ENDBRANCH  24  25
ENDBRANCH   1  24
TORSDOF 9
ENDMDL
MODEL 9
REMARK minimizedAffinity -7.38980961REMARK CNNscore 0.274336129REMARK CNNaffinity 5.49763584REMARK  9 active torsions:
REMARK  status: ('A' for Active; 'I' for Inactive)
REMARK    1  A    between atoms: N_3  and  C_17 
REMARK    2  A    between atoms: N_4  and  C_18 
REMARK       I    between atoms: N_5  and  C_19 
REMARK       I    between atoms: N_6  and  C_20 
REMARK       I    between atoms: N_7  and  C_19 
REMARK       I    between atoms: N_8  and  C_20 
REMARK       I    between atoms: N_9  and  C_21 
REMARK    3  A    between atoms: N_9  and  C_23 
REMARK       I    between atoms: N_10  and  C_22 
REMARK    4  A    between atoms: N_10  and  C_24 
REMARK       I    between atoms: N_11  and  C_21 
REMARK       I    between atoms: N_12  and  C_22 
REMARK    5  A    between atoms: C_13  and  C_14 
REMARK    6  A    between atoms: C_13  and  C_15 
REMARK    7  A    between atoms: C_14  and  C_16 
REMARK    8  A    between atoms: C_15  and  C_17 
REMARK    9  A    between atoms: C_16  and  C_18 
ROOT
ATOM      1  C   LIG d   1      24.639  11.221   1.959  0.00  0.00     0.002 C 
ENDROOT
BRANCH   1   2
ATOM      2  C   LIG d   1      23.691  10.920   3.121  0.00  0.00     0.002 C 
BRANCH   2   3
ATOM      3  C   LIG d   1      24.345  11.236   4.465  0.00  0.00     0.022 C 
BRANCH   3   4
ATOM      4  C   LIG d   1      23.514  12.239   5.263  0.00  0.00     0.152 C 
BRANCH   4   5
ATOM      5  N   LIG d   1      23.624  13.563   4.656  0.00  0.00    -0.261 NA
ATOM      6  C   LIG d   1      22.611  14.352   4.645  0.00  0.00     0.197 C 
ATOM      7  N   LIG d   1      22.759  15.586   4.088  0.00  0.00    -0.190 NA
ATOM      8  N   LIG d   1      21.383  14.126   5.179  0.00  0.00    -0.271 NA
ATOM      9  C   LIG d   1      23.453  15.766   3.012  0.00  0.00     0.180 C 
ATOM     10  N   LIG d   1      23.634  16.970   2.380  0.00  0.00    -0.331 N 
ATOM     11  N   LIG d   1      24.100  14.797   2.295  0.00  0.00    -0.272 NA
ATOM     12  H   LIG d   1      23.707  16.887   1.376  0.00  0.00     0.168 HD
ATOM     13  H   LIG d   1      24.147  13.945   2.863  0.00  0.00     0.127 HD
ATOM     14  H   LIG d   1      25.049  15.071   2.065  0.00  0.00     0.127 HD
ATOM     15  H   LIG d   1      21.396  13.622   6.052  0.00  0.00     0.127 HD
ATOM     16  H   LIG d   1      20.874  14.999   5.251  0.00  0.00     0.127 HD
BRANCH  10  17
ATOM     17  C   LIG d   1      23.292  18.252   2.845  0.00  0.00     0.034 A 
ATOM     18  C   LIG d   1      24.037  18.822   3.890  0.00  0.00     0.031 A 
ATOM     19  C   LIG d   1      23.720  20.086   4.399  0.00  0.00     0.026 A 
ATOM     20  C   LIG d   1      22.642  20.791   3.875  0.00  0.00     0.034 A 
ATOM     21 CL   LIG d   1      22.245  22.343   4.502  0.00  0.00    -0.084 Cl
ATOM     22  C   LIG d   1      21.880  20.242   2.850  0.00  0.00     0.026 A 
ATOM     23  C   LIG d   1      22.204  18.980   2.343  0.00  0.00     0.031 A 
ENDBRANCH  10  17
ENDBRANCH   4   5
ENDBRANCH   3   4
ENDBRANCH   2   3
ENDBRANCH   1   2
BRANCH   1  24
ATOM     24  C   LIG d   1      24.226  10.467   0.695  0.00  0.00     0.022 C 
BRANCH  24  25
ATOM     25  C   LIG d   1      23.069   9.509   0.973  0.00  0.00     0.152 C 
BRANCH  25  26
ATOM     26  N   LIG d   1      22.232   9.367  -0.215  0.00  0.00    -0.261 NA
ATOM     27  C   LIG d   1      20.999   9.730  -0.186  0.00  0.00     0.197 C 
ATOM     28  N   LIG d   1      20.236   9.590  -1.310  0.00  0.00    -0.190 NA
ATOM     29  N   LIG d   1      20.348  10.310   0.856  0.00  0.00    -0.271 NA
ATOM     30  C   LIG d   1      20.469   8.665  -2.193  0.00  0.00     0.180 C 
ATOM     31  N   LIG d   1      19.675   8.632  -3.303  0.00  0.00    -0.331 N 
ATOM     32  N   LIG d   1      21.481   7.755  -2.169  0.00  0.00    -0.272 NA
ATOM     33  H   LIG d   1      19.004   9.392  -3.309  0.00  0.00     0.168 HD
ATOM     34  H   LIG d   1      22.178   8.031  -1.471  0.00  0.00     0.127 HD
ATOM     35  H   LIG d   1      21.913   7.638  -3.077  0.00  0.00     0.127 HD
ATOM     36  H   LIG d   1      20.917  10.922   1.420  0.00  0.00     0.127 HD
ATOM     37  H   LIG d   1      19.496  10.755   0.537  0.00  0.00     0.127 HD
BRANCH  31  38
ATOM     38  C   LIG d   1      19.277   7.552  -4.117  0.00  0.00     0.034 A 
ATOM     39  C   LIG d   1      18.248   6.717  -3.650  0.00  0.00     0.031 A 
ATOM     40  C   LIG d   1      17.763   5.658  -4.424  0.00  0.00     0.026 A 
ATOM     41  C   LIG d   1      18.300   5.426  -5.686  0.00  0.00     0.034 A 
ATOM     42 CL   LIG d   1      17.705   4.129  -6.645  0.00  0.00    -0.084 Cl
ATOM     43  C   LIG d   1      19.314   6.243  -6.174  0.00  0.00     0.026 A 
ATOM     44  C   LIG d   1      19.795   7.302  -5.394  0.00  0.00     0.031 A 
ENDBRANCH  31  38
ENDBRANCH  25  26
ENDBRANCH  24  25
ENDBRANCH   1  24
TORSDOF 9
ENDMDL
