REMARK  15 active torsions:
REMARK  status: ('A' for Active; 'I' for Inactive)
REMARK    1  A    between atoms: O_2  and  C_21 
REMARK    2  A    between atoms: O_2  and  C_25 
REMARK    3  A    between atoms: O_4  and  C_17 
REMARK    4  A    between atoms: O_5  and  C_24 
REMARK    5  A    between atoms: O_5  and  C_28 
REMARK    6  A    between atoms: O_6  and  C_18 
REMARK    7  A    between atoms: O_7  and  C_19 
REMARK    8  A    between atoms: O_8  and  C_20 
REMARK    9  A    between atoms: O_9  and  C_22 
REMARK   10  A    between atoms: O_10  and  C_23 
REMARK   11  A    between atoms: O_12  and  C_35 
REMARK   12  A    between atoms: O_14  and  C_42 
REMARK   13  A    between atoms: O_15  and  C_40 
REMARK   14  A    between atoms: C_16  and  C_25 
REMARK   15  A    between atoms: C_33  and  C_37 
ROOT
ATOM      1  O   UNK d   1      10.878  -6.813  22.915  0.00  0.00    -0.348 OA
ATOM      2  C   UNK d   1      11.164  -7.914  22.046  0.00  0.00     0.180 C 
ATOM      3  C   UNK d   1      12.343  -8.718  22.619  0.00  0.00     0.180 C 
ATOM      4  C   UNK d   1      13.546  -7.796  22.834  0.00  0.00     0.183 C 
ATOM      5  C   UNK d   1      13.167  -6.573  23.675  0.00  0.00     0.205 C 
ATOM      6  C   UNK d   1      11.952  -5.879  23.031  0.00  0.00     0.298 C 
ENDROOT
BRANCH   6   7
ATOM      7  O   UNK d   1      11.538  -4.798  23.878  0.00  0.00    -0.318 OA
BRANCH   7   8
ATOM      8  C   UNK d   1      10.509  -5.036  24.749  0.00  0.00     0.077 A 
ATOM      9  C   UNK d   1      10.465  -6.030  25.723  0.00  0.00     0.074 A 
ATOM     10  C   UNK d   1       9.308  -6.221  26.488  0.00  0.00     0.089 A 
ATOM     11  O   UNK d   1       9.359  -7.295  27.333  0.00  0.00    -0.340 OA
ATOM     12  C   UNK d   1       8.208  -5.374  26.340  0.00  0.00     0.076 A 
ATOM     13  C   UNK d   1       8.103  -7.794  27.806  0.00  0.00     0.169 C 
ATOM     14  C   UNK d   1       7.150  -6.693  28.238  0.00  0.00     0.121 C 
ATOM     15  C   UNK d   1       7.016  -5.628  27.188  0.00  0.00     0.167 C 
ATOM     16  O   UNK d   1       5.981  -4.977  27.098  0.00  0.00    -0.292 OA
ATOM     17  C   UNK d   1       8.270  -4.351  25.387  0.00  0.00     0.085 A 
ATOM     18  C   UNK d   1       9.409  -4.192  24.592  0.00  0.00     0.074 A 
BRANCH  13  19
ATOM     19  C   UNK d   1       7.515  -8.857  26.879  0.00  0.00    -0.026 A 
ATOM     20  C   UNK d   1       8.189  -9.349  25.752  0.00  0.00     0.049 A 
ATOM     21  C   UNK d   1       7.606 -10.332  24.944  0.00  0.00     0.099 A 
ATOM     22  C   UNK d   1       6.337 -10.849  25.226  0.00  0.00     0.101 A 
ATOM     23  C   UNK d   1       5.657 -10.361  26.341  0.00  0.00     0.040 A 
ATOM     24  C   UNK d   1       6.239  -9.378  27.156  0.00  0.00     0.012 A 
BRANCH  21  25
ATOM     25  O   UNK d   1       8.291 -10.804  23.854  0.00  0.00    -0.358 OA
ATOM     26  H   UNK d   1       7.675 -11.265  23.265  0.00  0.00     0.217 HD
ENDBRANCH  21  25
BRANCH  22  27
ATOM     27  O   UNK d   1       5.867 -11.808  24.369  0.00  0.00    -0.353 OA
ATOM     28  C   UNK d   1       4.528 -12.246  24.545  0.00  0.00     0.210 C 
ENDBRANCH  22  27
ENDBRANCH  13  19
BRANCH  17  29
ATOM     29  O   UNK d   1       7.219  -3.500  25.200  0.00  0.00    -0.360 OA
ATOM     30  H   UNK d   1       6.440  -3.808  25.690  0.00  0.00     0.217 HD
ENDBRANCH  17  29
ENDBRANCH   7   8
ENDBRANCH   6   7
BRANCH   5  31
ATOM     31  O   UNK d   1      14.305  -5.701  23.742  0.00  0.00    -0.388 OA
ATOM     32  H   UNK d   1      15.084  -6.286  23.678  0.00  0.00     0.210 HD
ENDBRANCH   5  31
BRANCH   2  33
ATOM     33  C   UNK d   1       9.910  -8.803  21.934  0.00  0.00     0.205 C 
BRANCH  33  34
ATOM     34  O   UNK d   1       9.787  -9.417  20.646  0.00  0.00    -0.356 OA
BRANCH  34  35
ATOM     35  C   UNK d   1       9.136 -10.694  20.672  0.00  0.00     0.291 C 
ATOM     36  O   UNK d   1       9.536 -11.449  19.520  0.00  0.00    -0.351 OA
ATOM     37  C   UNK d   1       8.611 -12.435  19.054  0.00  0.00     0.152 C 
ATOM     38  C   UNK d   1       7.735 -12.978  20.188  0.00  0.00     0.178 C 
ATOM     39  C   UNK d   1       9.431 -13.525  18.372  0.00  0.00     0.042 C 
ATOM     40  C   UNK d   1       6.879 -11.834  20.754  0.00  0.00     0.183 C 
ATOM     41  C   UNK d   1       7.607 -10.479  20.727  0.00  0.00     0.204 C 
BRANCH  38  42
ATOM     42  O   UNK d   1       6.860 -14.029  19.776  0.00  0.00    -0.390 OA
ATOM     43  H   UNK d   1       6.213 -14.175  20.489  0.00  0.00     0.210 HD
ENDBRANCH  38  42
BRANCH  40  44
ATOM     44  O   UNK d   1       6.507 -12.165  22.111  0.00  0.00    -0.390 OA
ATOM     45  H   UNK d   1       6.038 -11.375  22.449  0.00  0.00     0.210 HD
ENDBRANCH  40  44
BRANCH  41  46
ATOM     46  O   UNK d   1       7.190  -9.689  21.850  0.00  0.00    -0.388 OA
ATOM     47  H   UNK d   1       6.943 -10.336  22.544  0.00  0.00     0.210 HD
ENDBRANCH  41  46
ENDBRANCH  34  35
ENDBRANCH  33  34
ENDBRANCH   2  33
BRANCH   4  48
ATOM     48  O   UNK d   1      14.606  -8.509  23.493  0.00  0.00    -0.390 OA
ATOM     49  H   UNK d   1      14.546  -9.432  23.186  0.00  0.00     0.210 HD
ENDBRANCH   4  48
BRANCH   3  50
ATOM     50  O   UNK d   1      12.722  -9.780  21.742  0.00  0.00    -0.390 OA
ATOM     51  H   UNK d   1      11.951  -9.972  21.177  0.00  0.00     0.210 HD
ENDBRANCH   3  50
TORSDOF 15
