REMARK  15 active torsions:
REMARK  status: ('A' for Active; 'I' for Inactive)
REMARK    1  A    between atoms: O_2  and  C_21 
REMARK    2  A    between atoms: O_2  and  C_25 
REMARK    3  A    between atoms: O_4  and  C_17 
REMARK    4  A    between atoms: O_5  and  C_24 
REMARK    5  A    between atoms: O_5  and  C_28 
REMARK    6  A    between atoms: O_6  and  C_18 
REMARK    7  A    between atoms: O_7  and  C_19 
REMARK    8  A    between atoms: O_8  and  C_20 
REMARK    9  A    between atoms: O_9  and  C_22 
REMARK   10  A    between atoms: O_10  and  C_23 
REMARK   11  A    between atoms: O_12  and  C_35 
REMARK   12  A    between atoms: O_14  and  C_42 
REMARK   13  A    between atoms: O_15  and  C_40 
REMARK   14  A    between atoms: C_16  and  C_25 
REMARK   15  A    between atoms: C_33  and  C_37 
ROOT
ATOM      1  O   UNK d   1      11.871  -5.221   3.633  0.00  0.00    -0.348 OA
ATOM      2  C   UNK d   1      11.204  -4.011   3.256  0.00  0.00     0.180 C 
ATOM      3  C   UNK d   1      12.218  -2.855   3.255  0.00  0.00     0.180 C 
ATOM      4  C   UNK d   1      12.903  -2.761   4.621  0.00  0.00     0.183 C 
ATOM      5  C   UNK d   1      13.505  -4.107   5.035  0.00  0.00     0.205 C 
ATOM      6  C   UNK d   1      12.413  -5.190   4.954  0.00  0.00     0.298 C 
ENDROOT
BRANCH   6   7
ATOM      7  O   UNK d   1      13.007  -6.464   5.242  0.00  0.00    -0.318 OA
BRANCH   7   8
ATOM      8  C   UNK d   1      12.168  -7.538   5.371  0.00  0.00     0.077 A 
ATOM      9  C   UNK d   1      12.313  -8.777   4.752  0.00  0.00     0.074 A 
ATOM     10  C   UNK d   1      11.328  -9.762   4.900  0.00  0.00     0.089 A 
ATOM     11  O   UNK d   1      11.540 -10.890   4.156  0.00  0.00    -0.340 OA
ATOM     12  C   UNK d   1      10.225  -9.547   5.727  0.00  0.00     0.076 A 
ATOM     13  C   UNK d   1      10.400 -11.724   3.926  0.00  0.00     0.169 C 
ATOM     14  C   UNK d   1       9.556 -11.935   5.171  0.00  0.00     0.121 C 
ATOM     15  C   UNK d   1       9.222 -10.636   5.844  0.00  0.00     0.167 C 
ATOM     16  O   UNK d   1       8.192 -10.528   6.502  0.00  0.00    -0.292 OA
ATOM     17  C   UNK d   1      10.101  -8.315   6.379  0.00  0.00     0.085 A 
ATOM     18  C   UNK d   1      11.062  -7.316   6.193  0.00  0.00     0.074 A 
BRANCH  13  19
ATOM     19  C   UNK d   1       9.636 -11.328   2.664  0.00  0.00    -0.026 A 
ATOM     20  C   UNK d   1      10.047 -10.291   1.813  0.00  0.00     0.049 A 
ATOM     21  C   UNK d   1       9.314  -9.978   0.662  0.00  0.00     0.099 A 
ATOM     22  C   UNK d   1       8.149 -10.678   0.328  0.00  0.00     0.101 A 
ATOM     23  C   UNK d   1       7.730 -11.706   1.171  0.00  0.00     0.040 A 
ATOM     24  C   UNK d   1       8.464 -12.025   2.323  0.00  0.00     0.012 A 
BRANCH  21  25
ATOM     25  O   UNK d   1       9.743  -8.967  -0.158  0.00  0.00    -0.358 OA
ATOM     26  H   UNK d   1       8.975  -8.493  -0.510  0.00  0.00     0.217 HD
ENDBRANCH  21  25
BRANCH  22  27
ATOM     27  O   UNK d   1       7.515 -10.287  -0.821  0.00  0.00    -0.353 OA
ATOM     28  C   UNK d   1       6.410  -9.406  -0.693  0.00  0.00     0.210 C 
ENDBRANCH  22  27
ENDBRANCH  13  19
BRANCH  17  29
ATOM     29  O   UNK d   1       9.038  -8.053   7.194  0.00  0.00    -0.360 OA
ATOM     30  H   UNK d   1       8.216  -8.385   6.798  0.00  0.00     0.217 HD
ENDBRANCH  17  29
ENDBRANCH   7   8
ENDBRANCH   6   7
BRANCH   5  31
ATOM     31  O   UNK d   1      14.029  -3.977   6.365  0.00  0.00    -0.388 OA
ATOM     32  H   UNK d   1      13.986  -4.875   6.749  0.00  0.00     0.210 HD
ENDBRANCH   5  31
BRANCH   2  33
ATOM     33  C   UNK d   1      10.592  -4.192   1.854  0.00  0.00     0.205 C 
BRANCH  33  34
ATOM     34  O   UNK d   1       9.170  -4.017   1.849  0.00  0.00    -0.356 OA
BRANCH  34  35
ATOM     35  C   UNK d   1       8.453  -5.085   2.481  0.00  0.00     0.291 C 
ATOM     36  O   UNK d   1       8.430  -4.860   3.899  0.00  0.00    -0.351 OA
ATOM     37  C   UNK d   1       8.309  -6.022   4.723  0.00  0.00     0.152 C 
ATOM     38  C   UNK d   1       7.562  -7.154   4.010  0.00  0.00     0.178 C 
ATOM     39  C   UNK d   1       7.618  -5.582   6.010  0.00  0.00     0.042 C 
ATOM     40  C   UNK d   1       8.372  -7.595   2.781  0.00  0.00     0.183 C 
ATOM     41  C   UNK d   1       9.121  -6.428   2.114  0.00  0.00     0.204 C 
BRANCH  38  42
ATOM     42  O   UNK d   1       7.344  -8.299   4.836  0.00  0.00    -0.390 OA
ATOM     43  H   UNK d   1       8.190  -8.524   5.263  0.00  0.00     0.210 HD
ENDBRANCH  38  42
BRANCH  40  44
ATOM     44  O   UNK d   1       7.473  -8.209   1.832  0.00  0.00    -0.390 OA
ATOM     45  H   UNK d   1       8.022  -8.406   1.047  0.00  0.00     0.210 HD
ENDBRANCH  40  44
BRANCH  41  46
ATOM     46  O   UNK d   1       9.192  -6.652   0.698  0.00  0.00    -0.388 OA
ATOM     47  H   UNK d   1       8.479  -7.296   0.502  0.00  0.00     0.210 HD
ENDBRANCH  41  46
ENDBRANCH  34  35
ENDBRANCH  33  34
ENDBRANCH   2  33
BRANCH   4  48
ATOM     48  O   UNK d   1      13.945  -1.771   4.586  0.00  0.00    -0.390 OA
ATOM     49  H   UNK d   1      14.593  -2.033   5.266  0.00  0.00     0.210 HD
ENDBRANCH   4  48
BRANCH   3  50
ATOM     50  O   UNK d   1      11.582  -1.608   2.967  0.00  0.00    -0.390 OA
ATOM     51  H   UNK d   1      12.096  -0.914   3.419  0.00  0.00     0.210 HD
ENDBRANCH   3  50
TORSDOF 15
