MODEL 1
REMARK VINA RESULT:      -6.9      0.000      0.000
REMARK  11 active torsions:
REMARK  status: ('A' for Active; 'I' for Inactive)
REMARK    1  A    between atoms: O_1  and  C_16 
REMARK    2  A    between atoms: O_1  and  C_23 
REMARK    3  A    between atoms: O_2  and  C_20 
REMARK    4  A    between atoms: N_8  and  C_22 
REMARK    5  A    between atoms: N_8  and  C_26 
REMARK    6  A    between atoms: N_9  and  C_24 
REMARK    7  A    between atoms: C_10  and  C_13 
REMARK    8  A    between atoms: C_11  and  C_16 
REMARK    9  A    between atoms: C_12  and  C_20 
REMARK   10  A    between atoms: C_22  and  C_23 
REMARK   11  A    between atoms: C_26  and  C_28 
ROOT
ATOM      1  N   LIG d   1      18.457  -6.108  -4.690  0.00  0.00    -0.362 N 
ATOM      2  C   LIG d   1      16.145  -4.565  -4.182  0.00  0.00     0.101 C 
ATOM      3  C   LIG d   1      16.210  -5.643  -5.267  0.00  0.00     0.052 C 
ATOM      4  C   LIG d   1      17.376  -4.535  -3.290  0.00  0.00     0.052 C 
ATOM      5  C   LIG d   1      17.338  -6.362  -5.470  0.00  0.00     0.018 C 
ATOM      6  C   LIG d   1      18.471  -5.270  -3.584  0.00  0.00     0.018 C 
ATOM      7  C   LIG d   1      17.480  -7.481  -6.469  0.00  0.00     0.069 C 
ATOM      8  C   LIG d   1      19.728  -5.280  -2.750  0.00  0.00     0.069 C 
ATOM      9  H   LIG d   1      19.269  -6.710  -4.820  0.00  0.00     0.165 HD
ENDROOT
BRANCH   3  10
ATOM     10  C   LIG d   1      14.955  -5.791  -6.035  0.00  0.00     0.292 C 
ATOM     11  O   LIG d   1      13.883  -6.108  -5.540  0.00  0.00    -0.259 OA
BRANCH  10  12
ATOM     12  O   LIG d   1      15.091  -5.318  -7.304  0.00  0.00    -0.316 OA
BRANCH  12  13
ATOM     13  C   LIG d   1      14.021  -4.456  -7.726  0.00  0.00     0.206 C 
BRANCH  13  14
ATOM     14  C   LIG d   1      13.330  -5.056  -8.958  0.00  0.00     0.261 C 
BRANCH  14  15
ATOM     15  N   LIG d   1      13.758  -4.411 -10.261  0.00  0.00    -0.069 N 
ATOM     16  C   LIG d   1      12.619  -4.305 -11.248  0.00  0.00     0.270 C 
ATOM     17  H   LIG d   1      14.487  -4.988 -10.696  0.00  0.00     0.279 HD
BRANCH  15  18
ATOM     18  C   LIG d   1      14.392  -3.057  -9.984  0.00  0.00     0.273 C 
BRANCH  18  19
ATOM     19  C   LIG d   1      15.842  -2.958 -10.371  0.00  0.00    -0.033 A 
ATOM     20  C   LIG d   1      16.225  -3.144 -11.708  0.00  0.00     0.009 A 
ATOM     21  C   LIG d   1      17.565  -3.038 -12.082  0.00  0.00     0.001 A 
ATOM     22  C   LIG d   1      18.535  -2.749 -11.126  0.00  0.00     0.000 A 
ATOM     23  C   LIG d   1      18.167  -2.557  -9.795  0.00  0.00     0.001 A 
ATOM     24  C   LIG d   1      16.827  -2.656  -9.417  0.00  0.00     0.009 A 
ENDBRANCH  18  19
ENDBRANCH  15  18
ENDBRANCH  14  15
ENDBRANCH  13  14
ENDBRANCH  12  13
ENDBRANCH  10  12
ENDBRANCH   3  10
BRANCH   2  25
ATOM     25  C   LIG d   1      15.898  -3.180  -4.804  0.00  0.00    -0.042 A 
ATOM     26  C   LIG d   1      14.737  -2.461  -4.478  0.00  0.00     0.044 A 
ATOM     27  C   LIG d   1      14.530  -1.189  -5.028  0.00  0.00     0.103 A 
ATOM     28  C   LIG d   1      15.459  -0.620  -5.906  0.00  0.00     0.036 A 
ATOM     29  C   LIG d   1      16.616  -1.328  -6.226  0.00  0.00     0.003 A 
ATOM     30  C   LIG d   1      16.836  -2.594  -5.676  0.00  0.00     0.008 A 
BRANCH  27  31
ATOM     31  N   LIG d   1      13.305  -0.457  -4.708  0.00  0.00    -0.116 N 
ATOM     32  O   LIG d   1      13.411   0.570  -4.025  0.00  0.00    -0.532 OA
ATOM     33  O   LIG d   1      12.235  -0.949  -5.098  0.00  0.00    -0.532 OA
ENDBRANCH  27  31
ENDBRANCH   2  25
BRANCH   4  34
ATOM     34  C   LIG d   1      17.331  -3.650  -2.103  0.00  0.00     0.291 C 
ATOM     35  O   LIG d   1      16.541  -3.767  -1.180  0.00  0.00    -0.260 OA
BRANCH  34  36
ATOM     36  O   LIG d   1      18.296  -2.704  -2.217  0.00  0.00    -0.323 OA
ATOM     37  C   LIG d   1      17.810  -1.362  -2.151  0.00  0.00     0.213 C 
ENDBRANCH  34  36
ENDBRANCH   4  34
TORSDOF 11
ENDMDL
MODEL 2
REMARK VINA RESULT:      -6.5      1.365      2.545
REMARK  11 active torsions:
REMARK  status: ('A' for Active; 'I' for Inactive)
REMARK    1  A    between atoms: O_1  and  C_16 
REMARK    2  A    between atoms: O_1  and  C_23 
REMARK    3  A    between atoms: O_2  and  C_20 
REMARK    4  A    between atoms: N_8  and  C_22 
REMARK    5  A    between atoms: N_8  and  C_26 
REMARK    6  A    between atoms: N_9  and  C_24 
REMARK    7  A    between atoms: C_10  and  C_13 
REMARK    8  A    between atoms: C_11  and  C_16 
REMARK    9  A    between atoms: C_12  and  C_20 
REMARK   10  A    between atoms: C_22  and  C_23 
REMARK   11  A    between atoms: C_26  and  C_28 
ROOT
ATOM      1  N   LIG d   1      18.666  -6.048  -5.018  0.00  0.00    -0.362 N 
ATOM      2  C   LIG d   1      16.443  -4.453  -4.309  0.00  0.00     0.101 C 
ATOM      3  C   LIG d   1      16.353  -5.626  -5.290  0.00  0.00     0.052 C 
ATOM      4  C   LIG d   1      17.794  -4.350  -3.619  0.00  0.00     0.052 C 
ATOM      5  C   LIG d   1      17.444  -6.366  -5.595  0.00  0.00     0.018 C 
ATOM      6  C   LIG d   1      18.838  -5.115  -4.006  0.00  0.00     0.018 C 
ATOM      7  C   LIG d   1      17.444  -7.571  -6.499  0.00  0.00     0.069 C 
ATOM      8  C   LIG d   1      20.206  -5.057  -3.372  0.00  0.00     0.069 C 
ATOM      9  H   LIG d   1      19.454  -6.665  -5.213  0.00  0.00     0.165 HD
ENDROOT
BRANCH   3  10
ATOM     10  C   LIG d   1      14.999  -5.836  -5.845  0.00  0.00     0.292 C 
ATOM     11  O   LIG d   1      14.016  -6.101  -5.168  0.00  0.00    -0.259 OA
BRANCH  10  12
ATOM     12  O   LIG d   1      14.939  -5.479  -7.157  0.00  0.00    -0.316 OA
BRANCH  12  13
ATOM     13  C   LIG d   1      13.782  -4.699  -7.500  0.00  0.00     0.206 C 
BRANCH  13  14
ATOM     14  C   LIG d   1      13.317  -5.059  -8.918  0.00  0.00     0.261 C 
BRANCH  14  15
ATOM     15  N   LIG d   1      13.628  -3.987  -9.943  0.00  0.00    -0.069 N 
ATOM     16  C   LIG d   1      14.808  -3.135  -9.539  0.00  0.00     0.270 C 
ATOM     17  H   LIG d   1      12.817  -3.364 -10.031  0.00  0.00     0.279 HD
BRANCH  15  18
ATOM     18  C   LIG d   1      13.832  -4.620 -11.310  0.00  0.00     0.273 C 
BRANCH  18  19
ATOM     19  C   LIG d   1      13.199  -3.866 -12.447  0.00  0.00    -0.033 A 
ATOM     20  C   LIG d   1      12.584  -2.627 -12.210  0.00  0.00     0.009 A 
ATOM     21  C   LIG d   1      12.009  -1.910 -13.259  0.00  0.00     0.001 A 
ATOM     22  C   LIG d   1      12.038  -2.424 -14.553  0.00  0.00     0.000 A 
ATOM     23  C   LIG d   1      12.650  -3.650 -14.802  0.00  0.00     0.001 A 
ATOM     24  C   LIG d   1      13.232  -4.369 -13.757  0.00  0.00     0.009 A 
ENDBRANCH  18  19
ENDBRANCH  15  18
ENDBRANCH  14  15
ENDBRANCH  13  14
ENDBRANCH  12  13
ENDBRANCH  10  12
ENDBRANCH   3  10
BRANCH   2  25
ATOM     25  C   LIG d   1      16.095  -3.129  -5.009  0.00  0.00    -0.042 A 
ATOM     26  C   LIG d   1      15.029  -2.345  -4.537  0.00  0.00     0.044 A 
ATOM     27  C   LIG d   1      14.732  -1.128  -5.163  0.00  0.00     0.103 A 
ATOM     28  C   LIG d   1      15.477  -0.676  -6.260  0.00  0.00     0.036 A 
ATOM     29  C   LIG d   1      16.539  -1.449  -6.725  0.00  0.00     0.003 A 
ATOM     30  C   LIG d   1      16.849  -2.662  -6.103  0.00  0.00     0.008 A 
BRANCH  27  31
ATOM     31  N   LIG d   1      13.604  -0.329  -4.687  0.00  0.00    -0.116 N 
ATOM     32  O   LIG d   1      13.854   0.652  -3.975  0.00  0.00    -0.532 OA
ATOM     33  O   LIG d   1      12.467  -0.725  -4.984  0.00  0.00    -0.532 OA
ENDBRANCH  27  31
ENDBRANCH   2  25
BRANCH   4  34
ATOM     34  C   LIG d   1      17.920  -3.362  -2.523  0.00  0.00     0.291 C 
ATOM     35  O   LIG d   1      17.517  -3.533  -1.384  0.00  0.00    -0.260 OA
BRANCH  34  36
ATOM     36  O   LIG d   1      18.543  -2.253  -2.994  0.00  0.00    -0.323 OA
ATOM     37  C   LIG d   1      19.209  -1.486  -1.989  0.00  0.00     0.213 C 
ENDBRANCH  34  36
ENDBRANCH   4  34
TORSDOF 11
ENDMDL
MODEL 3
REMARK VINA RESULT:      -6.4      2.257      4.125
REMARK  11 active torsions:
REMARK  status: ('A' for Active; 'I' for Inactive)
REMARK    1  A    between atoms: O_1  and  C_16 
REMARK    2  A    between atoms: O_1  and  C_23 
REMARK    3  A    between atoms: O_2  and  C_20 
REMARK    4  A    between atoms: N_8  and  C_22 
REMARK    5  A    between atoms: N_8  and  C_26 
REMARK    6  A    between atoms: N_9  and  C_24 
REMARK    7  A    between atoms: C_10  and  C_13 
REMARK    8  A    between atoms: C_11  and  C_16 
REMARK    9  A    between atoms: C_12  and  C_20 
REMARK   10  A    between atoms: C_22  and  C_23 
REMARK   11  A    between atoms: C_26  and  C_28 
ROOT
ATOM      1  N   LIG d   1      16.631  -6.021  -3.739  0.00  0.00    -0.362 N 
ATOM      2  C   LIG d   1      15.961  -3.715  -5.228  0.00  0.00     0.101 C 
ATOM      3  C   LIG d   1      15.057  -4.948  -5.142  0.00  0.00     0.052 C 
ATOM      4  C   LIG d   1      17.157  -3.780  -4.292  0.00  0.00     0.052 C 
ATOM      5  C   LIG d   1      15.417  -6.028  -4.411  0.00  0.00     0.018 C 
ATOM      6  C   LIG d   1      17.456  -4.911  -3.617  0.00  0.00     0.018 C 
ATOM      7  C   LIG d   1      14.571  -7.260  -4.217  0.00  0.00     0.069 C 
ATOM      8  C   LIG d   1      18.632  -5.049  -2.681  0.00  0.00     0.069 C 
ATOM      9  H   LIG d   1      16.844  -6.819  -3.142  0.00  0.00     0.165 HD
ENDROOT
BRANCH   3  10
ATOM     10  C   LIG d   1      13.808  -4.827  -5.923  0.00  0.00     0.292 C 
ATOM     11  O   LIG d   1      12.917  -4.027  -5.672  0.00  0.00    -0.259 OA
BRANCH  10  12
ATOM     12  O   LIG d   1      13.870  -5.549  -7.075  0.00  0.00    -0.316 OA
BRANCH  12  13
ATOM     13  C   LIG d   1      13.097  -5.000  -8.155  0.00  0.00     0.206 C 
BRANCH  13  14
ATOM     14  C   LIG d   1      13.947  -4.958  -9.432  0.00  0.00     0.261 C 
BRANCH  14  15
ATOM     15  N   LIG d   1      13.322  -5.702 -10.594  0.00  0.00    -0.069 N 
ATOM     16  C   LIG d   1      11.812  -5.678 -10.543  0.00  0.00     0.270 C 
ATOM     17  H   LIG d   1      13.613  -6.686 -10.557  0.00  0.00     0.279 HD
BRANCH  15  18
ATOM     18  C   LIG d   1      13.851  -5.150 -11.908  0.00  0.00     0.273 C 
BRANCH  18  19
ATOM     19  C   LIG d   1      13.375  -3.762 -12.238  0.00  0.00    -0.033 A 
ATOM     20  C   LIG d   1      13.966  -2.652 -11.616  0.00  0.00     0.009 A 
ATOM     21  C   LIG d   1      13.544  -1.359 -11.926  0.00  0.00     0.001 A 
ATOM     22  C   LIG d   1      12.527  -1.161 -12.856  0.00  0.00     0.000 A 
ATOM     23  C   LIG d   1      11.934  -2.255 -13.484  0.00  0.00     0.001 A 
ATOM     24  C   LIG d   1      12.357  -3.551 -13.182  0.00  0.00     0.009 A 
ENDBRANCH  18  19
ENDBRANCH  15  18
ENDBRANCH  14  15
ENDBRANCH  13  14
ENDBRANCH  12  13
ENDBRANCH  10  12
ENDBRANCH   3  10
BRANCH   2  25
ATOM     25  C   LIG d   1      16.423  -3.478  -6.675  0.00  0.00    -0.042 A 
ATOM     26  C   LIG d   1      17.282  -4.398  -7.297  0.00  0.00     0.044 A 
ATOM     27  C   LIG d   1      17.680  -4.189  -8.625  0.00  0.00     0.103 A 
ATOM     28  C   LIG d   1      17.241  -3.072  -9.345  0.00  0.00     0.036 A 
ATOM     29  C   LIG d   1      16.383  -2.161  -8.732  0.00  0.00     0.003 A 
ATOM     30  C   LIG d   1      15.974  -2.364  -7.411  0.00  0.00     0.008 A 
BRANCH  27  31
ATOM     31  N   LIG d   1      18.597  -5.135  -9.258  0.00  0.00    -0.116 N 
ATOM     32  O   LIG d   1      18.237  -5.663 -10.319  0.00  0.00    -0.532 OA
ATOM     33  O   LIG d   1      19.652  -5.387  -8.658  0.00  0.00    -0.532 OA
ENDBRANCH  27  31
ENDBRANCH   2  25
BRANCH   4  34
ATOM     34  C   LIG d   1      17.988  -2.561  -4.170  0.00  0.00     0.291 C 
ATOM     35  O   LIG d   1      19.154  -2.478  -4.520  0.00  0.00    -0.260 OA
BRANCH  34  36
ATOM     36  O   LIG d   1      17.247  -1.571  -3.612  0.00  0.00    -0.323 OA
ATOM     37  C   LIG d   1      16.743  -1.883  -2.312  0.00  0.00     0.213 C 
ENDBRANCH  34  36
ENDBRANCH   4  34
TORSDOF 11
ENDMDL
MODEL 4
REMARK VINA RESULT:      -6.4      2.260      7.032
REMARK  11 active torsions:
REMARK  status: ('A' for Active; 'I' for Inactive)
REMARK    1  A    between atoms: O_1  and  C_16 
REMARK    2  A    between atoms: O_1  and  C_23 
REMARK    3  A    between atoms: O_2  and  C_20 
REMARK    4  A    between atoms: N_8  and  C_22 
REMARK    5  A    between atoms: N_8  and  C_26 
REMARK    6  A    between atoms: N_9  and  C_24 
REMARK    7  A    between atoms: C_10  and  C_13 
REMARK    8  A    between atoms: C_11  and  C_16 
REMARK    9  A    between atoms: C_12  and  C_20 
REMARK   10  A    between atoms: C_22  and  C_23 
REMARK   11  A    between atoms: C_26  and  C_28 
ROOT
ATOM      1  N   LIG d   1      17.921  -2.095  -8.768  0.00  0.00    -0.362 N 
ATOM      2  C   LIG d   1      15.407  -2.561  -7.564  0.00  0.00     0.101 C 
ATOM      3  C   LIG d   1      16.530  -1.776  -6.880  0.00  0.00     0.052 C 
ATOM      4  C   LIG d   1      15.709  -2.902  -9.014  0.00  0.00     0.052 C 
ATOM      5  C   LIG d   1      17.717  -1.573  -7.498  0.00  0.00     0.018 C 
ATOM      6  C   LIG d   1      16.933  -2.686  -9.543  0.00  0.00     0.018 C 
ATOM      7  C   LIG d   1      18.856  -0.765  -6.934  0.00  0.00     0.069 C 
ATOM      8  C   LIG d   1      17.304  -3.010 -10.970  0.00  0.00     0.069 C 
ATOM      9  H   LIG d   1      18.798  -1.868  -9.235  0.00  0.00     0.165 HD
ENDROOT
BRANCH   3  10
ATOM     10  C   LIG d   1      16.183  -1.298  -5.525  0.00  0.00     0.292 C 
ATOM     11  O   LIG d   1      15.321  -0.462  -5.293  0.00  0.00    -0.259 OA
BRANCH  10  12
ATOM     12  O   LIG d   1      16.776  -2.058  -4.563  0.00  0.00    -0.316 OA
BRANCH  12  13
ATOM     13  C   LIG d   1      15.913  -2.387  -3.462  0.00  0.00     0.206 C 
BRANCH  13  14
ATOM     14  C   LIG d   1      16.709  -2.344  -2.150  0.00  0.00     0.261 C 
BRANCH  14  15
ATOM     15  N   LIG d   1      17.250  -3.695  -1.731  0.00  0.00    -0.069 N 
ATOM     16  C   LIG d   1      16.583  -4.832  -2.467  0.00  0.00     0.270 C 
ATOM     17  H   LIG d   1      17.070  -3.831  -0.729  0.00  0.00     0.279 HD
BRANCH  15  18
ATOM     18  C   LIG d   1      18.761  -3.723  -1.899  0.00  0.00     0.273 C 
BRANCH  18  19
ATOM     19  C   LIG d   1      19.237  -4.431  -3.138  0.00  0.00    -0.033 A 
ATOM     20  C   LIG d   1      19.675  -5.762  -3.060  0.00  0.00     0.009 A 
ATOM     21  C   LIG d   1      20.104  -6.435  -4.204  0.00  0.00     0.001 A 
ATOM     22  C   LIG d   1      20.104  -5.785  -5.436  0.00  0.00     0.000 A 
ATOM     23  C   LIG d   1      19.667  -4.465  -5.528  0.00  0.00     0.001 A 
ATOM     24  C   LIG d   1      19.231  -3.790  -4.387  0.00  0.00     0.009 A 
ENDBRANCH  18  19
ENDBRANCH  15  18
ENDBRANCH  14  15
ENDBRANCH  13  14
ENDBRANCH  12  13
ENDBRANCH  10  12
ENDBRANCH   3  10
BRANCH   2  25
ATOM     25  C   LIG d   1      15.072  -3.836  -6.770  0.00  0.00    -0.042 A 
ATOM     26  C   LIG d   1      16.033  -4.849  -6.631  0.00  0.00     0.044 A 
ATOM     27  C   LIG d   1      15.730  -5.997  -5.886  0.00  0.00     0.103 A 
ATOM     28  C   LIG d   1      14.478  -6.157  -5.279  0.00  0.00     0.036 A 
ATOM     29  C   LIG d   1      13.525  -5.149  -5.410  0.00  0.00     0.003 A 
ATOM     30  C   LIG d   1      13.820  -3.997  -6.145  0.00  0.00     0.008 A 
BRANCH  27  31
ATOM     31  N   LIG d   1      16.725  -7.062  -5.768  0.00  0.00    -0.116 N 
ATOM     32  O   LIG d   1      17.339  -7.391  -6.791  0.00  0.00    -0.532 OA
ATOM     33  O   LIG d   1      16.844  -7.602  -4.659  0.00  0.00    -0.532 OA
ENDBRANCH  27  31
ENDBRANCH   2  25
BRANCH   4  34
ATOM     34  C   LIG d   1      14.614  -3.501  -9.811  0.00  0.00     0.291 C 
ATOM     35  O   LIG d   1      14.601  -4.650 -10.220  0.00  0.00    -0.260 OA
BRANCH  34  36
ATOM     36  O   LIG d   1      13.647  -2.569 -10.006  0.00  0.00    -0.323 OA
ATOM     37  C   LIG d   1      13.616  -2.029 -11.328  0.00  0.00     0.213 C 
ENDBRANCH  34  36
ENDBRANCH   4  34
TORSDOF 11
ENDMDL
MODEL 5
REMARK VINA RESULT:      -6.3      2.347      6.736
REMARK  11 active torsions:
REMARK  status: ('A' for Active; 'I' for Inactive)
REMARK    1  A    between atoms: O_1  and  C_16 
REMARK    2  A    between atoms: O_1  and  C_23 
REMARK    3  A    between atoms: O_2  and  C_20 
REMARK    4  A    between atoms: N_8  and  C_22 
REMARK    5  A    between atoms: N_8  and  C_26 
REMARK    6  A    between atoms: N_9  and  C_24 
REMARK    7  A    between atoms: C_10  and  C_13 
REMARK    8  A    between atoms: C_11  and  C_16 
REMARK    9  A    between atoms: C_12  and  C_20 
REMARK   10  A    between atoms: C_22  and  C_23 
REMARK   11  A    between atoms: C_26  and  C_28 
ROOT
ATOM      1  N   LIG d   1      14.550  -3.711  -4.805  0.00  0.00    -0.362 N 
ATOM      2  C   LIG d   1      16.854  -3.492  -6.425  0.00  0.00     0.101 C 
ATOM      3  C   LIG d   1      16.259  -2.312  -5.652  0.00  0.00     0.052 C 
ATOM      4  C   LIG d   1      16.197  -4.822  -6.091  0.00  0.00     0.052 C 
ATOM      5  C   LIG d   1      15.156  -2.466  -4.883  0.00  0.00     0.018 C 
ATOM      6  C   LIG d   1      15.081  -4.880  -5.332  0.00  0.00     0.018 C 
ATOM      7  C   LIG d   1      14.534  -1.382  -4.041  0.00  0.00     0.069 C 
ATOM      8  C   LIG d   1      14.373  -6.162  -4.970  0.00  0.00     0.069 C 
ATOM      9  H   LIG d   1      13.762  -3.812  -4.165  0.00  0.00     0.165 HD
ENDROOT
BRANCH   3  10
ATOM     10  C   LIG d   1      16.993  -1.043  -5.845  0.00  0.00     0.292 C 
ATOM     11  O   LIG d   1      16.676  -0.186  -6.658  0.00  0.00    -0.259 OA
BRANCH  10  12
ATOM     12  O   LIG d   1      17.918  -0.850  -4.866  0.00  0.00    -0.316 OA
BRANCH  12  13
ATOM     13  C   LIG d   1      19.276  -0.838  -5.335  0.00  0.00     0.206 C 
BRANCH  13  14
ATOM     14  C   LIG d   1      19.839  -2.266  -5.324  0.00  0.00     0.261 C 
BRANCH  14  15
ATOM     15  N   LIG d   1      20.757  -2.540  -4.149  0.00  0.00    -0.069 N 
ATOM     16  C   LIG d   1      22.028  -1.726  -4.214  0.00  0.00     0.270 C 
ATOM     17  H   LIG d   1      21.027  -3.530  -4.160  0.00  0.00     0.279 HD
BRANCH  15  18
ATOM     18  C   LIG d   1      20.010  -2.316  -2.845  0.00  0.00     0.273 C 
BRANCH  18  19
ATOM     19  C   LIG d   1      18.892  -3.290  -2.591  0.00  0.00    -0.033 A 
ATOM     20  C   LIG d   1      17.657  -2.829  -2.109  0.00  0.00     0.009 A 
ATOM     21  C   LIG d   1      16.607  -3.720  -1.885  0.00  0.00     0.001 A 
ATOM     22  C   LIG d   1      16.780  -5.079  -2.136  0.00  0.00     0.000 A 
ATOM     23  C   LIG d   1      18.000  -5.549  -2.619  0.00  0.00     0.001 A 
ATOM     24  C   LIG d   1      19.051  -4.660  -2.851  0.00  0.00     0.009 A 
ENDBRANCH  18  19
ENDBRANCH  15  18
ENDBRANCH  14  15
ENDBRANCH  13  14
ENDBRANCH  12  13
ENDBRANCH  10  12
ENDBRANCH   3  10
BRANCH   2  25
ATOM     25  C   LIG d   1      16.802  -3.234  -7.941  0.00  0.00    -0.042 A 
ATOM     26  C   LIG d   1      15.563  -3.116  -8.590  0.00  0.00     0.044 A 
ATOM     27  C   LIG d   1      15.523  -2.855  -9.967  0.00  0.00     0.103 A 
ATOM     28  C   LIG d   1      16.700  -2.715 -10.712  0.00  0.00     0.036 A 
ATOM     29  C   LIG d   1      17.931  -2.824 -10.068  0.00  0.00     0.003 A 
ATOM     30  C   LIG d   1      17.982  -3.077  -8.694  0.00  0.00     0.008 A 
BRANCH  27  31
ATOM     31  N   LIG d   1      14.231  -2.762 -10.644  0.00  0.00    -0.116 N 
ATOM     32  O   LIG d   1      14.207  -2.250 -11.770  0.00  0.00    -0.532 OA
ATOM     33  O   LIG d   1      13.235  -3.155 -10.017  0.00  0.00    -0.532 OA
ENDBRANCH  27  31
ENDBRANCH   2  25
BRANCH   4  34
ATOM     34  C   LIG d   1      16.820  -6.044  -6.649  0.00  0.00     0.291 C 
ATOM     35  O   LIG d   1      16.533  -6.539  -7.727  0.00  0.00    -0.260 OA
BRANCH  34  36
ATOM     36  O   LIG d   1      17.745  -6.511  -5.774  0.00  0.00    -0.323 OA
ATOM     37  C   LIG d   1      17.736  -7.931  -5.617  0.00  0.00     0.213 C 
ENDBRANCH  34  36
ENDBRANCH   4  34
TORSDOF 11
ENDMDL
MODEL 6
REMARK VINA RESULT:      -6.2     26.029     30.178
REMARK  11 active torsions:
REMARK  status: ('A' for Active; 'I' for Inactive)
REMARK    1  A    between atoms: O_1  and  C_16 
REMARK    2  A    between atoms: O_1  and  C_23 
REMARK    3  A    between atoms: O_2  and  C_20 
REMARK    4  A    between atoms: N_8  and  C_22 
REMARK    5  A    between atoms: N_8  and  C_26 
REMARK    6  A    between atoms: N_9  and  C_24 
REMARK    7  A    between atoms: C_10  and  C_13 
REMARK    8  A    between atoms: C_11  and  C_16 
REMARK    9  A    between atoms: C_12  and  C_20 
REMARK   10  A    between atoms: C_22  and  C_23 
REMARK   11  A    between atoms: C_26  and  C_28 
ROOT
ATOM      1  N   LIG d   1      26.841  -3.399  24.408  0.00  0.00    -0.362 N 
ATOM      2  C   LIG d   1      24.021  -3.490  24.260  0.00  0.00     0.101 C 
ATOM      3  C   LIG d   1      24.885  -2.700  23.274  0.00  0.00     0.052 C 
ATOM      4  C   LIG d   1      24.832  -4.363  25.205  0.00  0.00     0.052 C 
ATOM      5  C   LIG d   1      26.235  -2.690  23.381  0.00  0.00     0.018 C 
ATOM      6  C   LIG d   1      26.178  -4.269  25.261  0.00  0.00     0.018 C 
ATOM      7  C   LIG d   1      27.170  -1.994  22.427  0.00  0.00     0.069 C 
ATOM      8  C   LIG d   1      27.042  -5.096  26.181  0.00  0.00     0.069 C 
ATOM      9  H   LIG d   1      27.860  -3.429  24.422  0.00  0.00     0.165 HD
ENDROOT
BRANCH   3  10
ATOM     10  C   LIG d   1      24.107  -1.975  22.247  0.00  0.00     0.292 C 
ATOM     11  O   LIG d   1      23.994  -0.758  22.206  0.00  0.00    -0.259 OA
BRANCH  10  12
ATOM     12  O   LIG d   1      23.724  -2.804  21.237  0.00  0.00    -0.316 OA
BRANCH  12  13
ATOM     13  C   LIG d   1      23.744  -2.192  19.937  0.00  0.00     0.206 C 
BRANCH  13  14
ATOM     14  C   LIG d   1      25.066  -2.519  19.231  0.00  0.00     0.261 C 
BRANCH  14  15
ATOM     15  N   LIG d   1      24.888  -3.350  17.977  0.00  0.00    -0.069 N 
ATOM     16  C   LIG d   1      24.783  -4.826  18.279  0.00  0.00     0.270 C 
ATOM     17  H   LIG d   1      25.706  -3.220  17.370  0.00  0.00     0.279 HD
BRANCH  15  18
ATOM     18  C   LIG d   1      23.688  -2.849  17.189  0.00  0.00     0.273 C 
BRANCH  18  19
ATOM     19  C   LIG d   1      23.994  -1.728  16.234  0.00  0.00    -0.033 A 
ATOM     20  C   LIG d   1      23.650  -0.409  16.568  0.00  0.00     0.009 A 
ATOM     21  C   LIG d   1      23.942   0.641  15.698  0.00  0.00     0.001 A 
ATOM     22  C   LIG d   1      24.576   0.386  14.485  0.00  0.00     0.000 A 
ATOM     23  C   LIG d   1      24.927  -0.919  14.143  0.00  0.00     0.001 A 
ATOM     24  C   LIG d   1      24.642  -1.972  15.013  0.00  0.00     0.009 A 
ENDBRANCH  18  19
ENDBRANCH  15  18
ENDBRANCH  14  15
ENDBRANCH  13  14
ENDBRANCH  12  13
ENDBRANCH  10  12
ENDBRANCH   3  10
BRANCH   2  25
ATOM     25  C   LIG d   1      23.100  -2.549  25.054  0.00  0.00    -0.042 A 
ATOM     26  C   LIG d   1      23.650  -1.644  25.977  0.00  0.00     0.044 A 
ATOM     27  C   LIG d   1      22.808  -0.772  26.680  0.00  0.00     0.103 A 
ATOM     28  C   LIG d   1      21.421  -0.788  26.484  0.00  0.00     0.036 A 
ATOM     29  C   LIG d   1      20.875  -1.679  25.563  0.00  0.00     0.003 A 
ATOM     30  C   LIG d   1      21.706  -2.549  24.851  0.00  0.00     0.008 A 
BRANCH  27  31
ATOM     31  N   LIG d   1      23.382   0.148  27.661  0.00  0.00    -0.116 N 
ATOM     32  O   LIG d   1      23.424   1.350  27.366  0.00  0.00    -0.532 OA
ATOM     33  O   LIG d   1      23.839  -0.349  28.700  0.00  0.00    -0.532 OA
ENDBRANCH  27  31
ENDBRANCH   2  25
BRANCH   4  34
ATOM     34  C   LIG d   1      24.081  -5.300  26.072  0.00  0.00     0.291 C 
ATOM     35  O   LIG d   1      23.985  -5.197  27.284  0.00  0.00    -0.260 OA
BRANCH  34  36
ATOM     36  O   LIG d   1      23.532  -6.274  25.304  0.00  0.00    -0.323 OA
ATOM     37  C   LIG d   1      24.404  -7.377  25.049  0.00  0.00     0.213 C 
ENDBRANCH  34  36
ENDBRANCH   4  34
TORSDOF 11
ENDMDL
MODEL 7
REMARK VINA RESULT:      -6.1     21.546     25.063
REMARK  11 active torsions:
REMARK  status: ('A' for Active; 'I' for Inactive)
REMARK    1  A    between atoms: O_1  and  C_16 
REMARK    2  A    between atoms: O_1  and  C_23 
REMARK    3  A    between atoms: O_2  and  C_20 
REMARK    4  A    between atoms: N_8  and  C_22 
REMARK    5  A    between atoms: N_8  and  C_26 
REMARK    6  A    between atoms: N_9  and  C_24 
REMARK    7  A    between atoms: C_10  and  C_13 
REMARK    8  A    between atoms: C_11  and  C_16 
REMARK    9  A    between atoms: C_12  and  C_20 
REMARK   10  A    between atoms: C_22  and  C_23 
REMARK   11  A    between atoms: C_26  and  C_28 
ROOT
ATOM      1  N   LIG d   1       9.526  18.910   5.682  0.00  0.00    -0.362 N 
ATOM      2  C   LIG d   1       9.100  17.047   3.601  0.00  0.00     0.101 C 
ATOM      3  C   LIG d   1       8.564  18.481   3.563  0.00  0.00     0.052 C 
ATOM      4  C   LIG d   1      10.032  16.784   4.773  0.00  0.00     0.052 C 
ATOM      5  C   LIG d   1       8.798  19.341   4.582  0.00  0.00     0.018 C 
ATOM      6  C   LIG d   1      10.188  17.693   5.760  0.00  0.00     0.018 C 
ATOM      7  C   LIG d   1       8.366  20.784   4.609  0.00  0.00     0.069 C 
ATOM      8  C   LIG d   1      11.087  17.494   6.955  0.00  0.00     0.069 C 
ATOM      9  H   LIG d   1       9.744  19.599   6.401  0.00  0.00     0.165 HD
ENDROOT
BRANCH   3  10
ATOM     10  C   LIG d   1       7.790  18.796   2.344  0.00  0.00     0.292 C 
ATOM     11  O   LIG d   1       6.606  19.104   2.345  0.00  0.00    -0.259 OA
BRANCH  10  12
ATOM     12  O   LIG d   1       8.600  18.918   1.258  0.00  0.00    -0.316 OA
BRANCH  12  13
ATOM     13  C   LIG d   1       8.192  19.940   0.333  0.00  0.00     0.206 C 
BRANCH  13  14
ATOM     14  C   LIG d   1       9.430  20.647  -0.236  0.00  0.00     0.261 C 
BRANCH  14  15
ATOM     15  N   LIG d   1       9.588  22.071   0.258  0.00  0.00    -0.069 N 
ATOM     16  C   LIG d   1       8.673  22.379   1.419  0.00  0.00     0.270 C 
ATOM     17  H   LIG d   1       9.346  22.717  -0.502  0.00  0.00     0.279 HD
BRANCH  15  18
ATOM     18  C   LIG d   1      11.044  22.342   0.600  0.00  0.00     0.273 C 
BRANCH  18  19
ATOM     19  C   LIG d   1      11.475  21.826   1.946  0.00  0.00    -0.033 A 
ATOM     20  C   LIG d   1      11.677  22.721   3.008  0.00  0.00     0.009 A 
ATOM     21  C   LIG d   1      12.061  22.254   4.264  0.00  0.00     0.001 A 
ATOM     22  C   LIG d   1      12.251  20.890   4.473  0.00  0.00     0.000 A 
ATOM     23  C   LIG d   1      12.049  19.990   3.429  0.00  0.00     0.001 A 
ATOM     24  C   LIG d   1      11.659  20.453   2.171  0.00  0.00     0.009 A 
ENDBRANCH  18  19
ENDBRANCH  15  18
ENDBRANCH  14  15
ENDBRANCH  13  14
ENDBRANCH  12  13
ENDBRANCH  10  12
ENDBRANCH   3  10
BRANCH   2  25
ATOM     25  C   LIG d   1       7.944  16.033   3.596  0.00  0.00    -0.042 A 
ATOM     26  C   LIG d   1       7.876  15.051   2.594  0.00  0.00     0.044 A 
ATOM     27  C   LIG d   1       6.834  14.114   2.610  0.00  0.00     0.103 A 
ATOM     28  C   LIG d   1       5.850  14.141   3.606  0.00  0.00     0.036 A 
ATOM     29  C   LIG d   1       5.920  15.110   4.605  0.00  0.00     0.003 A 
ATOM     30  C   LIG d   1       6.959  16.044   4.603  0.00  0.00     0.008 A 
BRANCH  27  31
ATOM     31  N   LIG d   1       6.751  13.112   1.548  0.00  0.00    -0.116 N 
ATOM     32  O   LIG d   1       5.984  12.156   1.719  0.00  0.00    -0.532 OA
ATOM     33  O   LIG d   1       7.500  13.261   0.571  0.00  0.00    -0.532 OA
ENDBRANCH  27  31
ENDBRANCH   2  25
BRANCH   4  34
ATOM     34  C   LIG d   1      10.742  15.484   4.795  0.00  0.00     0.291 C 
ATOM     35  O   LIG d   1      11.644  15.173   4.035  0.00  0.00    -0.260 OA
BRANCH  34  36
ATOM     36  O   LIG d   1      10.224  14.713   5.784  0.00  0.00    -0.323 OA
ATOM     37  C   LIG d   1       9.786  13.424   5.350  0.00  0.00     0.213 C 
ENDBRANCH  34  36
ENDBRANCH   4  34
TORSDOF 11
ENDMDL
MODEL 8
REMARK VINA RESULT:      -6.0     21.772     25.807
REMARK  11 active torsions:
REMARK  status: ('A' for Active; 'I' for Inactive)
REMARK    1  A    between atoms: O_1  and  C_16 
REMARK    2  A    between atoms: O_1  and  C_23 
REMARK    3  A    between atoms: O_2  and  C_20 
REMARK    4  A    between atoms: N_8  and  C_22 
REMARK    5  A    between atoms: N_8  and  C_26 
REMARK    6  A    between atoms: N_9  and  C_24 
REMARK    7  A    between atoms: C_10  and  C_13 
REMARK    8  A    between atoms: C_11  and  C_16 
REMARK    9  A    between atoms: C_12  and  C_20 
REMARK   10  A    between atoms: C_22  and  C_23 
REMARK   11  A    between atoms: C_26  and  C_28 
ROOT
ATOM      1  N   LIG d   1       9.665  20.553   3.497  0.00  0.00    -0.362 N 
ATOM      2  C   LIG d   1       7.928  18.490   2.654  0.00  0.00     0.101 C 
ATOM      3  C   LIG d   1       7.860  19.125   4.046  0.00  0.00     0.052 C 
ATOM      4  C   LIG d   1       8.892  19.200   1.716  0.00  0.00     0.052 C 
ATOM      5  C   LIG d   1       8.710  20.116   4.404  0.00  0.00     0.018 C 
ATOM      6  C   LIG d   1       9.723  20.165   2.166  0.00  0.00     0.018 C 
ATOM      7  C   LIG d   1       8.682  20.842   5.723  0.00  0.00     0.069 C 
ATOM      8  C   LIG d   1      10.709  20.902   1.294  0.00  0.00     0.069 C 
ATOM      9  H   LIG d   1      10.246  21.346   3.770  0.00  0.00     0.165 HD
ENDROOT
BRANCH   3  10
ATOM     10  C   LIG d   1       6.812  18.548   4.914  0.00  0.00     0.292 C 
ATOM     11  O   LIG d   1       5.622  18.814   4.819  0.00  0.00    -0.259 OA
BRANCH  10  12
ATOM     12  O   LIG d   1       7.300  17.527   5.670  0.00  0.00    -0.316 OA
BRANCH  12  13
ATOM     13  C   LIG d   1       7.459  17.852   7.061  0.00  0.00     0.206 C 
BRANCH  13  14
ATOM     14  C   LIG d   1       8.507  16.926   7.692  0.00  0.00     0.261 C 
BRANCH  14  15
ATOM     15  N   LIG d   1       9.840  17.605   7.935  0.00  0.00    -0.069 N 
ATOM     16  C   LIG d   1      10.446  17.216   9.263  0.00  0.00     0.270 C 
ATOM     17  H   LIG d   1       9.699  18.622   7.950  0.00  0.00     0.279 HD
BRANCH  15  18
ATOM     18  C   LIG d   1      10.785  17.321   6.779  0.00  0.00     0.273 C 
BRANCH  18  19
ATOM     19  C   LIG d   1      11.545  18.521   6.285  0.00  0.00    -0.033 A 
ATOM     20  C   LIG d   1      12.114  18.511   5.002  0.00  0.00     0.009 A 
ATOM     21  C   LIG d   1      12.808  19.624   4.527  0.00  0.00     0.001 A 
ATOM     22  C   LIG d   1      12.944  20.755   5.328  0.00  0.00     0.000 A 
ATOM     23  C   LIG d   1      12.380  20.779   6.602  0.00  0.00     0.001 A 
ATOM     24  C   LIG d   1      11.679  19.670   7.079  0.00  0.00     0.009 A 
ENDBRANCH  18  19
ENDBRANCH  15  18
ENDBRANCH  14  15
ENDBRANCH  13  14
ENDBRANCH  12  13
ENDBRANCH  10  12
ENDBRANCH   3  10
BRANCH   2  25
ATOM     25  C   LIG d   1       8.278  16.996   2.754  0.00  0.00    -0.042 A 
ATOM     26  C   LIG d   1       9.444  16.591   3.424  0.00  0.00     0.044 A 
ATOM     27  C   LIG d   1       9.743  15.226   3.532  0.00  0.00     0.103 A 
ATOM     28  C   LIG d   1       8.903  14.253   2.978  0.00  0.00     0.036 A 
ATOM     29  C   LIG d   1       7.742  14.653   2.319  0.00  0.00     0.003 A 
ATOM     30  C   LIG d   1       7.430  16.011   2.211  0.00  0.00     0.008 A 
BRANCH  27  31
ATOM     31  N   LIG d   1      10.973  14.811   4.206  0.00  0.00    -0.116 N 
ATOM     32  O   LIG d   1      10.865  14.086   5.203  0.00  0.00    -0.532 OA
ATOM     33  O   LIG d   1      12.040  15.262   3.762  0.00  0.00    -0.532 OA
ENDBRANCH  27  31
ENDBRANCH   2  25
BRANCH   4  34
ATOM     34  C   LIG d   1       8.893  18.773   0.298  0.00  0.00     0.291 C 
ATOM     35  O   LIG d   1       9.827  18.219  -0.259  0.00  0.00    -0.260 OA
BRANCH  34  36
ATOM     36  O   LIG d   1       7.703  19.099  -0.265  0.00  0.00    -0.323 OA
ATOM     37  C   LIG d   1       7.559  20.488  -0.564  0.00  0.00     0.213 C 
ENDBRANCH  34  36
ENDBRANCH   4  34
TORSDOF 11
ENDMDL
MODEL 9
REMARK VINA RESULT:      -6.0     31.959     35.059
REMARK  11 active torsions:
REMARK  status: ('A' for Active; 'I' for Inactive)
REMARK    1  A    between atoms: O_1  and  C_16 
REMARK    2  A    between atoms: O_1  and  C_23 
REMARK    3  A    between atoms: O_2  and  C_20 
REMARK    4  A    between atoms: N_8  and  C_22 
REMARK    5  A    between atoms: N_8  and  C_26 
REMARK    6  A    between atoms: N_9  and  C_24 
REMARK    7  A    between atoms: C_10  and  C_13 
REMARK    8  A    between atoms: C_11  and  C_16 
REMARK    9  A    between atoms: C_12  and  C_20 
REMARK   10  A    between atoms: C_22  and  C_23 
REMARK   11  A    between atoms: C_26  and  C_28 
ROOT
ATOM      1  N   LIG d   1       2.992  31.537 -11.497  0.00  0.00    -0.362 N 
ATOM      2  C   LIG d   1       5.029  29.770 -12.342  0.00  0.00     0.101 C 
ATOM      3  C   LIG d   1       3.550  29.565 -12.681  0.00  0.00     0.052 C 
ATOM      4  C   LIG d   1       5.312  31.105 -11.670  0.00  0.00     0.052 C 
ATOM      5  C   LIG d   1       2.609  30.442 -12.259  0.00  0.00     0.018 C 
ATOM      6  C   LIG d   1       4.307  31.908 -11.259  0.00  0.00     0.018 C 
ATOM      7  C   LIG d   1       1.142  30.359 -12.592  0.00  0.00     0.069 C 
ATOM      8  C   LIG d   1       4.516  33.238 -10.578  0.00  0.00     0.069 C 
ATOM      9  H   LIG d   1       2.271  32.215 -11.252  0.00  0.00     0.165 HD
ENDROOT
BRANCH   3  10
ATOM     10  C   LIG d   1       3.284  28.349 -13.478  0.00  0.00     0.292 C 
ATOM     11  O   LIG d   1       2.762  27.338 -13.029  0.00  0.00    -0.259 OA
BRANCH  10  12
ATOM     12  O   LIG d   1       3.484  28.571 -14.805  0.00  0.00    -0.316 OA
BRANCH  12  13
ATOM     13  C   LIG d   1       2.896  27.577 -15.661  0.00  0.00     0.206 C 
BRANCH  13  14
ATOM     14  C   LIG d   1       3.438  27.737 -17.088  0.00  0.00     0.261 C 
BRANCH  14  15
ATOM     15  N   LIG d   1       4.557  26.770 -17.417  0.00  0.00    -0.069 N 
ATOM     16  C   LIG d   1       4.049  25.512 -18.082  0.00  0.00     0.270 C 
ATOM     17  H   LIG d   1       5.023  26.488 -16.547  0.00  0.00     0.279 HD
BRANCH  15  18
ATOM     18  C   LIG d   1       5.613  27.467 -18.260  0.00  0.00     0.273 C 
BRANCH  18  19
ATOM     19  C   LIG d   1       6.650  28.214 -17.468  0.00  0.00    -0.033 A 
ATOM     20  C   LIG d   1       6.606  28.199 -16.065  0.00  0.00     0.009 A 
ATOM     21  C   LIG d   1       7.571  28.874 -15.320  0.00  0.00     0.001 A 
ATOM     22  C   LIG d   1       8.589  29.573 -15.965  0.00  0.00     0.000 A 
ATOM     23  C   LIG d   1       8.647  29.591 -17.357  0.00  0.00     0.001 A 
ATOM     24  C   LIG d   1       7.686  28.912 -18.108  0.00  0.00     0.009 A 
ENDBRANCH  18  19
ENDBRANCH  15  18
ENDBRANCH  14  15
ENDBRANCH  13  14
ENDBRANCH  12  13
ENDBRANCH  10  12
ENDBRANCH   3  10
BRANCH   2  25
ATOM     25  C   LIG d   1       5.556  28.612 -11.479  0.00  0.00    -0.042 A 
ATOM     26  C   LIG d   1       6.500  27.717 -12.006  0.00  0.00     0.044 A 
ATOM     27  C   LIG d   1       6.995  26.678 -11.207  0.00  0.00     0.103 A 
ATOM     28  C   LIG d   1       6.561  26.510  -9.886  0.00  0.00     0.036 A 
ATOM     29  C   LIG d   1       5.629  27.401  -9.358  0.00  0.00     0.003 A 
ATOM     30  C   LIG d   1       5.134  28.445 -10.145  0.00  0.00     0.008 A 
BRANCH  27  31
ATOM     31  N   LIG d   1       7.957  25.731 -11.770  0.00  0.00    -0.116 N 
ATOM     32  O   LIG d   1       8.189  24.698 -11.130  0.00  0.00    -0.532 OA
ATOM     33  O   LIG d   1       8.517  26.057 -12.827  0.00  0.00    -0.532 OA
ENDBRANCH  27  31
ENDBRANCH   2  25
BRANCH   4  34
ATOM     34  C   LIG d   1       6.733  31.472 -11.467  0.00  0.00     0.291 C 
ATOM     35  O   LIG d   1       7.315  31.426 -10.396  0.00  0.00    -0.260 OA
BRANCH  34  36
ATOM     36  O   LIG d   1       7.264  31.863 -12.653  0.00  0.00    -0.323 OA
ATOM     37  C   LIG d   1       8.684  31.734 -12.727  0.00  0.00     0.213 C 
ENDBRANCH  34  36
ENDBRANCH   4  34
TORSDOF 11
ENDMDL
