MODEL 1
REMARK VINA RESULT:      -7.2      0.000      0.000
REMARK  8 active torsions:
REMARK  status: ('A' for Active; 'I' for Inactive)
REMARK    1  A    between atoms: S_1  and  N_7 
REMARK    2  A    between atoms: S_1  and  C_11 
REMARK    3  A    between atoms: O_4  and  C_22 
REMARK    4  A    between atoms: N_7  and  C_17 
REMARK    5  A    between atoms: N_8  and  N_10 
REMARK    6  A    between atoms: N_8  and  C_14 
REMARK    7  A    between atoms: N_10  and  C_18 
REMARK    8  A    between atoms: C_20  and  C_28 
ROOT
ATOM      1  C   LIG d   1       9.214   0.327  23.688  0.00  0.00     0.075 A 
ATOM      2  C   LIG d   1       8.382   0.452  24.798  0.00  0.00     0.027 A 
ATOM      3  C   LIG d   1       9.826  -0.890  23.391  0.00  0.00     0.027 A 
ATOM      4  C   LIG d   1       8.818  -1.886  25.388  0.00  0.00     0.079 A 
ATOM      5  C   LIG d   1       8.198  -0.651  25.638  0.00  0.00     0.035 A 
ATOM      6  C   LIG d   1       9.629  -1.975  24.247  0.00  0.00     0.035 A 
ENDROOT
BRANCH   4   7
ATOM      7  N   LIG d   1       8.711  -2.983  26.173  0.00  0.00    -0.150 NA
BRANCH   7   8
ATOM      8  N   LIG d   1       7.347  -3.282  26.672  0.00  0.00    -0.150 NA
BRANCH   8   9
ATOM      9  C   LIG d   1       6.691  -4.293  26.031  0.00  0.00     0.080 A 
ATOM     10  C   LIG d   1       6.679  -4.331  24.609  0.00  0.00     0.054 A 
ATOM     11  C   LIG d   1       6.020  -5.338  23.857  0.00  0.00     0.076 A 
ATOM     12  C   LIG d   1       5.342  -6.333  24.582  0.00  0.00     0.082 A 
ATOM     13  C   LIG d   1       5.320  -6.329  25.972  0.00  0.00     0.040 A 
ATOM     14  C   LIG d   1       5.987  -5.320  26.678  0.00  0.00     0.036 A 
BRANCH  11  15
ATOM     15  C   LIG d   1       6.032  -5.361  22.340  0.00  0.00     0.212 C 
ATOM     16  O   LIG d   1       6.638  -6.362  21.799  0.00  0.00    -0.644 OA
ATOM     17  O   LIG d   1       5.465  -4.441  21.665  0.00  0.00    -0.644 OA
ENDBRANCH  11  15
BRANCH  12  18
ATOM     18  O   LIG d   1       4.669  -7.360  23.952  0.00  0.00    -0.360 OA
ATOM     19  H   LIG d   1       3.937  -6.889  23.470  0.00  0.00     0.217 HD
ENDBRANCH  12  18
ENDBRANCH   8   9
ENDBRANCH   7   8
ENDBRANCH   4   7
BRANCH   1  20
ATOM     20  S   LIG d   1       9.509   1.716  22.638  0.00  0.00     0.247 S 
ATOM     21  O   LIG d   1       9.890   2.850  23.462  0.00  0.00    -0.205 OA
ATOM     22  O   LIG d   1      10.352   1.332  21.521  0.00  0.00    -0.205 OA
BRANCH  20  23
ATOM     23  N   LIG d   1       7.958   2.098  22.044  0.00  0.00    -0.165 NA
ATOM     24  H   LIG d   1       7.354   2.248  22.853  0.00  0.00     0.147 HD
BRANCH  23  25
ATOM     25  C   LIG d   1       7.342   1.081  21.282  0.00  0.00     0.116 C 
ATOM     26  N   LIG d   1       7.977   0.896  20.115  0.00  0.00    -0.248 NA
ATOM     27  C   LIG d   1       7.395   0.036  19.252  0.00  0.00     0.118 C 
ATOM     28  C   LIG d   1       6.278  -0.725  19.562  0.00  0.00     0.019 C 
ATOM     29  C   LIG d   1       5.709  -0.581  20.823  0.00  0.00     0.005 C 
ATOM     30  C   LIG d   1       6.250   0.347  21.707  0.00  0.00     0.045 C 
ENDBRANCH  23  25
ENDBRANCH  20  23
ENDBRANCH   1  20
TORSDOF 8
ENDMDL
MODEL 2
REMARK VINA RESULT:      -7.2     28.225     30.918
REMARK  8 active torsions:
REMARK  status: ('A' for Active; 'I' for Inactive)
REMARK    1  A    between atoms: S_1  and  N_7 
REMARK    2  A    between atoms: S_1  and  C_11 
REMARK    3  A    between atoms: O_4  and  C_22 
REMARK    4  A    between atoms: N_7  and  C_17 
REMARK    5  A    between atoms: N_8  and  N_10 
REMARK    6  A    between atoms: N_8  and  C_14 
REMARK    7  A    between atoms: N_10  and  C_18 
REMARK    8  A    between atoms: C_20  and  C_28 
ROOT
ATOM      1  C   LIG d   1      14.580  -5.093  -7.943  0.00  0.00     0.075 A 
ATOM      2  C   LIG d   1      13.790  -5.138  -6.796  0.00  0.00     0.027 A 
ATOM      3  C   LIG d   1      15.889  -5.572  -7.923  0.00  0.00     0.027 A 
ATOM      4  C   LIG d   1      15.663  -6.101  -5.543  0.00  0.00     0.079 A 
ATOM      5  C   LIG d   1      14.340  -5.634  -5.610  0.00  0.00     0.035 A 
ATOM      6  C   LIG d   1      16.416  -6.059  -6.725  0.00  0.00     0.035 A 
ENDROOT
BRANCH   4   7
ATOM      7  N   LIG d   1      16.270  -6.562  -4.424  0.00  0.00    -0.150 NA
BRANCH   7   8
ATOM      8  N   LIG d   1      15.916  -5.857  -3.168  0.00  0.00    -0.150 NA
BRANCH   8   9
ATOM      9  C   LIG d   1      16.622  -4.719  -2.909  0.00  0.00     0.080 A 
ATOM     10  C   LIG d   1      17.936  -4.816  -2.372  0.00  0.00     0.054 A 
ATOM     11  C   LIG d   1      18.743  -3.689  -2.066  0.00  0.00     0.076 A 
ATOM     12  C   LIG d   1      18.185  -2.422  -2.307  0.00  0.00     0.082 A 
ATOM     13  C   LIG d   1      16.902  -2.282  -2.822  0.00  0.00     0.040 A 
ATOM     14  C   LIG d   1      16.138  -3.418  -3.115  0.00  0.00     0.036 A 
BRANCH  11  15
ATOM     15  C   LIG d   1      20.146  -3.821  -1.503  0.00  0.00     0.212 C 
ATOM     16  O   LIG d   1      20.353  -3.241  -0.370  0.00  0.00    -0.644 OA
ATOM     17  O   LIG d   1      21.044  -4.476  -2.125  0.00  0.00    -0.644 OA
ENDBRANCH  11  15
BRANCH  12  18
ATOM     18  O   LIG d   1      18.882  -1.260  -2.047  0.00  0.00    -0.360 OA
ATOM     19  H   LIG d   1      19.131  -0.936  -2.954  0.00  0.00     0.217 HD
ENDBRANCH  12  18
ENDBRANCH   8   9
ENDBRANCH   7   8
ENDBRANCH   4   7
BRANCH   1  20
ATOM     20  S   LIG d   1      13.933  -4.424  -9.442  0.00  0.00     0.247 S 
ATOM     21  O   LIG d   1      14.777  -4.850 -10.546  0.00  0.00    -0.205 OA
ATOM     22  O   LIG d   1      12.500  -4.644  -9.515  0.00  0.00    -0.205 OA
BRANCH  20  23
ATOM     23  N   LIG d   1      14.219  -2.751  -9.283  0.00  0.00    -0.165 NA
ATOM     24  H   LIG d   1      14.265  -2.362 -10.226  0.00  0.00     0.147 HD
BRANCH  23  25
ATOM     25  C   LIG d   1      15.440  -2.410  -8.661  0.00  0.00     0.116 C 
ATOM     26  N   LIG d   1      15.248  -2.028  -7.390  0.00  0.00    -0.248 NA
ATOM     27  C   LIG d   1      16.335  -1.557  -6.742  0.00  0.00     0.118 C 
ATOM     28  C   LIG d   1      17.614  -1.567  -7.277  0.00  0.00     0.019 C 
ATOM     29  C   LIG d   1      17.788  -2.070  -8.563  0.00  0.00     0.005 C 
ATOM     30  C   LIG d   1      16.676  -2.501  -9.277  0.00  0.00     0.045 C 
ENDBRANCH  23  25
ENDBRANCH  20  23
ENDBRANCH   1  20
TORSDOF 8
ENDMDL
MODEL 3
REMARK VINA RESULT:      -7.1     21.569     25.259
REMARK  8 active torsions:
REMARK  status: ('A' for Active; 'I' for Inactive)
REMARK    1  A    between atoms: S_1  and  N_7 
REMARK    2  A    between atoms: S_1  and  C_11 
REMARK    3  A    between atoms: O_4  and  C_22 
REMARK    4  A    between atoms: N_7  and  C_17 
REMARK    5  A    between atoms: N_8  and  N_10 
REMARK    6  A    between atoms: N_8  and  C_14 
REMARK    7  A    between atoms: N_10  and  C_18 
REMARK    8  A    between atoms: C_20  and  C_28 
ROOT
ATOM      1  C   LIG d   1       8.639  14.216   3.096  0.00  0.00     0.075 A 
ATOM      2  C   LIG d   1       8.920  13.088   3.864  0.00  0.00     0.027 A 
ATOM      3  C   LIG d   1       7.323  14.541   2.768  0.00  0.00     0.027 A 
ATOM      4  C   LIG d   1       6.534  12.540   3.937  0.00  0.00     0.079 A 
ATOM      5  C   LIG d   1       7.869  12.261   4.270  0.00  0.00     0.035 A 
ATOM      6  C   LIG d   1       6.291  13.698   3.183  0.00  0.00     0.035 A 
ENDROOT
BRANCH   4   7
ATOM      7  N   LIG d   1       5.472  11.769   4.268  0.00  0.00    -0.150 NA
BRANCH   7   8
ATOM      8  N   LIG d   1       5.081  10.754   3.260  0.00  0.00    -0.150 NA
BRANCH   8   9
ATOM      9  C   LIG d   1       5.106   9.458   3.685  0.00  0.00     0.080 A 
ATOM     10  C   LIG d   1       4.178   8.524   3.146  0.00  0.00     0.054 A 
ATOM     11  C   LIG d   1       4.126   7.159   3.532  0.00  0.00     0.076 A 
ATOM     12  C   LIG d   1       5.046   6.736   4.507  0.00  0.00     0.082 A 
ATOM     13  C   LIG d   1       5.964   7.618   5.066  0.00  0.00     0.040 A 
ATOM     14  C   LIG d   1       5.986   8.957   4.656  0.00  0.00     0.036 A 
BRANCH  11  15
ATOM     15  C   LIG d   1       3.132   6.181   2.933  0.00  0.00     0.212 C 
ATOM     16  O   LIG d   1       2.811   6.391   1.701  0.00  0.00    -0.644 OA
ATOM     17  O   LIG d   1       2.664   5.216   3.620  0.00  0.00    -0.644 OA
ENDBRANCH  11  15
BRANCH  12  18
ATOM     18  O   LIG d   1       5.083   5.432   4.953  0.00  0.00    -0.360 OA
ATOM     19  H   LIG d   1       5.918   5.400   5.493  0.00  0.00     0.217 HD
ENDBRANCH  12  18
ENDBRANCH   8   9
ENDBRANCH   7   8
ENDBRANCH   4   7
BRANCH   1  20
ATOM     20  S   LIG d   1       9.949  15.251   2.522  0.00  0.00     0.247 S 
ATOM     21  O   LIG d   1      11.154  14.935   3.269  0.00  0.00    -0.205 OA
ATOM     22  O   LIG d   1       9.991  15.253   1.071  0.00  0.00    -0.205 OA
BRANCH  20  23
ATOM     23  N   LIG d   1       9.488  16.802   3.056  0.00  0.00    -0.165 NA
ATOM     24  H   LIG d   1       8.615  16.696   3.573  0.00  0.00     0.147 HD
BRANCH  23  25
ATOM     25  C   LIG d   1       9.221  17.733   2.028  0.00  0.00     0.116 C 
ATOM     26  N   LIG d   1      10.314  18.447   1.722  0.00  0.00    -0.248 NA
ATOM     27  C   LIG d   1      10.137  19.455   0.841  0.00  0.00     0.118 C 
ATOM     28  C   LIG d   1       8.944  19.694   0.175  0.00  0.00     0.019 C 
ATOM     29  C   LIG d   1       7.861  18.863   0.443  0.00  0.00     0.005 C 
ATOM     30  C   LIG d   1       7.997  17.859   1.395  0.00  0.00     0.045 C 
ENDBRANCH  23  25
ENDBRANCH  20  23
ENDBRANCH   1  20
TORSDOF 8
ENDMDL
MODEL 4
REMARK VINA RESULT:      -7.1     24.568     29.471
REMARK  8 active torsions:
REMARK  status: ('A' for Active; 'I' for Inactive)
REMARK    1  A    between atoms: S_1  and  N_7 
REMARK    2  A    between atoms: S_1  and  C_11 
REMARK    3  A    between atoms: O_4  and  C_22 
REMARK    4  A    between atoms: N_7  and  C_17 
REMARK    5  A    between atoms: N_8  and  N_10 
REMARK    6  A    between atoms: N_8  and  C_14 
REMARK    7  A    between atoms: N_10  and  C_18 
REMARK    8  A    between atoms: C_20  and  C_28 
ROOT
ATOM      1  C   LIG d   1       8.527  14.565   3.692  0.00  0.00     0.075 A 
ATOM      2  C   LIG d   1       9.550  14.487   2.749  0.00  0.00     0.027 A 
ATOM      3  C   LIG d   1       7.600  15.605   3.649  0.00  0.00     0.027 A 
ATOM      4  C   LIG d   1       8.762  16.566   1.721  0.00  0.00     0.079 A 
ATOM      5  C   LIG d   1       9.660  15.489   1.780  0.00  0.00     0.035 A 
ATOM      6  C   LIG d   1       7.733  16.595   2.674  0.00  0.00     0.035 A 
ENDROOT
BRANCH   4   7
ATOM      7  N   LIG d   1       8.828  17.586   0.833  0.00  0.00    -0.150 NA
BRANCH   7   8
ATOM      8  N   LIG d   1      10.162  18.216   0.681  0.00  0.00    -0.150 NA
BRANCH   8   9
ATOM      9  C   LIG d   1      10.186  19.578   0.767  0.00  0.00     0.080 A 
ATOM     10  C   LIG d   1       9.424  20.352  -0.150  0.00  0.00     0.054 A 
ATOM     11  C   LIG d   1       9.392  21.771  -0.142  0.00  0.00     0.076 A 
ATOM     12  C   LIG d   1      10.173  22.420   0.830  0.00  0.00     0.082 A 
ATOM     13  C   LIG d   1      10.940  21.702   1.740  0.00  0.00     0.040 A 
ATOM     14  C   LIG d   1      10.942  20.302   1.702  0.00  0.00     0.036 A 
BRANCH  11  15
ATOM     15  C   LIG d   1       8.561  22.573  -1.126  0.00  0.00     0.212 C 
ATOM     16  O   LIG d   1       7.403  22.082  -1.414  0.00  0.00    -0.644 OA
ATOM     17  O   LIG d   1       8.996  23.665  -1.617  0.00  0.00    -0.644 OA
ENDBRANCH  11  15
BRANCH  12  18
ATOM     18  O   LIG d   1      10.214  23.795   0.929  0.00  0.00    -0.360 OA
ATOM     19  H   LIG d   1      11.162  23.977   1.171  0.00  0.00     0.217 HD
ENDBRANCH  12  18
ENDBRANCH   8   9
ENDBRANCH   7   8
ENDBRANCH   4   7
BRANCH   1  20
ATOM     20  S   LIG d   1       8.393  13.345   4.961  0.00  0.00     0.247 S 
ATOM     21  O   LIG d   1       9.470  13.544   5.915  0.00  0.00    -0.205 OA
ATOM     22  O   LIG d   1       7.025  13.264   5.439  0.00  0.00    -0.205 OA
BRANCH  20  23
ATOM     23  N   LIG d   1       8.775  11.893   4.155  0.00  0.00    -0.165 NA
ATOM     24  H   LIG d   1       9.380  12.135   3.369  0.00  0.00     0.147 HD
BRANCH  23  25
ATOM     25  C   LIG d   1       7.671  11.209   3.599  0.00  0.00     0.116 C 
ATOM     26  N   LIG d   1       7.092  10.406   4.504  0.00  0.00    -0.248 NA
ATOM     27  C   LIG d   1       6.105   9.608   4.042  0.00  0.00     0.118 C 
ATOM     28  C   LIG d   1       5.605   9.671   2.750  0.00  0.00     0.019 C 
ATOM     29  C   LIG d   1       6.164  10.593   1.871  0.00  0.00     0.005 C 
ATOM     30  C   LIG d   1       7.226  11.382   2.301  0.00  0.00     0.045 C 
ENDBRANCH  23  25
ENDBRANCH  20  23
ENDBRANCH   1  20
TORSDOF 8
ENDMDL
MODEL 5
REMARK VINA RESULT:      -7.1     23.349     27.154
REMARK  8 active torsions:
REMARK  status: ('A' for Active; 'I' for Inactive)
REMARK    1  A    between atoms: S_1  and  N_7 
REMARK    2  A    between atoms: S_1  and  C_11 
REMARK    3  A    between atoms: O_4  and  C_22 
REMARK    4  A    between atoms: N_7  and  C_17 
REMARK    5  A    between atoms: N_8  and  N_10 
REMARK    6  A    between atoms: N_8  and  C_14 
REMARK    7  A    between atoms: N_10  and  C_18 
REMARK    8  A    between atoms: C_20  and  C_28 
ROOT
ATOM      1  C   LIG d   1       8.849  16.740   1.982  0.00  0.00     0.075 A 
ATOM      2  C   LIG d   1       9.587  15.585   1.731  0.00  0.00     0.027 A 
ATOM      3  C   LIG d   1       7.973  16.801   3.065  0.00  0.00     0.027 A 
ATOM      4  C   LIG d   1       8.518  14.483   3.640  0.00  0.00     0.079 A 
ATOM      5  C   LIG d   1       9.410  14.471   2.556  0.00  0.00     0.035 A 
ATOM      6  C   LIG d   1       7.811  15.673   3.872  0.00  0.00     0.035 A 
ENDROOT
BRANCH   4   7
ATOM      7  N   LIG d   1       8.272  13.433   4.458  0.00  0.00    -0.150 NA
BRANCH   7   8
ATOM      8  N   LIG d   1       8.694  12.108   3.941  0.00  0.00    -0.150 NA
BRANCH   8   9
ATOM      9  C   LIG d   1       7.687  11.286   3.529  0.00  0.00     0.080 A 
ATOM     10  C   LIG d   1       7.108  10.369   4.449  0.00  0.00     0.054 A 
ATOM     11  C   LIG d   1       6.062   9.472   4.110  0.00  0.00     0.076 A 
ATOM     12  C   LIG d   1       5.599   9.506   2.783  0.00  0.00     0.082 A 
ATOM     13  C   LIG d   1       6.142  10.380   1.849  0.00  0.00     0.040 A 
ATOM     14  C   LIG d   1       7.172  11.253   2.224  0.00  0.00     0.036 A 
BRANCH  11  15
ATOM     15  C   LIG d   1       5.455   8.511   5.115  0.00  0.00     0.212 C 
ATOM     16  O   LIG d   1       4.961   9.049   6.178  0.00  0.00    -0.644 OA
ATOM     17  O   LIG d   1       5.438   7.256   4.897  0.00  0.00    -0.644 OA
ENDBRANCH  11  15
BRANCH  12  18
ATOM     18  O   LIG d   1       4.585   8.679   2.346  0.00  0.00    -0.360 OA
ATOM     19  H   LIG d   1       3.975   9.301   1.866  0.00  0.00     0.217 HD
ENDBRANCH  12  18
ENDBRANCH   8   9
ENDBRANCH   7   8
ENDBRANCH   4   7
BRANCH   1  20
ATOM     20  S   LIG d   1       9.010  18.146   0.928  0.00  0.00     0.247 S 
ATOM     21  O   LIG d   1      10.270  18.049   0.211  0.00  0.00    -0.205 OA
ATOM     22  O   LIG d   1       7.783  18.362   0.184  0.00  0.00    -0.205 OA
BRANCH  20  23
ATOM     23  N   LIG d   1       9.219  19.437   2.021  0.00  0.00    -0.165 NA
ATOM     24  H   LIG d   1       8.294  19.686   2.373  0.00  0.00     0.147 HD
BRANCH  23  25
ATOM     25  C   LIG d   1       9.752  20.618   1.457  0.00  0.00     0.116 C 
ATOM     26  N   LIG d   1      10.976  20.877   1.940  0.00  0.00    -0.248 NA
ATOM     27  C   LIG d   1      11.524  22.052   1.565  0.00  0.00     0.118 C 
ATOM     28  C   LIG d   1      10.947  22.910   0.641  0.00  0.00     0.019 C 
ATOM     29  C   LIG d   1       9.723  22.554   0.083  0.00  0.00     0.005 C 
ATOM     30  C   LIG d   1       9.105  21.381   0.502  0.00  0.00     0.045 C 
ENDBRANCH  23  25
ENDBRANCH  20  23
ENDBRANCH   1  20
TORSDOF 8
ENDMDL
MODEL 6
REMARK VINA RESULT:      -7.1     24.983     29.830
REMARK  8 active torsions:
REMARK  status: ('A' for Active; 'I' for Inactive)
REMARK    1  A    between atoms: S_1  and  N_7 
REMARK    2  A    between atoms: S_1  and  C_11 
REMARK    3  A    between atoms: O_4  and  C_22 
REMARK    4  A    between atoms: N_7  and  C_17 
REMARK    5  A    between atoms: N_8  and  N_10 
REMARK    6  A    between atoms: N_8  and  C_14 
REMARK    7  A    between atoms: N_10  and  C_18 
REMARK    8  A    between atoms: C_20  and  C_28 
ROOT
ATOM      1  C   LIG d   1       7.753  14.781   2.192  0.00  0.00     0.075 A 
ATOM      2  C   LIG d   1       7.321  15.877   2.934  0.00  0.00     0.027 A 
ATOM      3  C   LIG d   1       8.974  14.816   1.519  0.00  0.00     0.027 A 
ATOM      4  C   LIG d   1       9.331  17.115   2.280  0.00  0.00     0.079 A 
ATOM      5  C   LIG d   1       8.109  17.032   2.965  0.00  0.00     0.035 A 
ATOM      6  C   LIG d   1       9.741  15.981   1.563  0.00  0.00     0.035 A 
ENDROOT
BRANCH   4   7
ATOM      7  N   LIG d   1      10.127  18.209   2.239  0.00  0.00    -0.150 NA
BRANCH   7   8
ATOM      8  N   LIG d   1      10.430  18.729   0.883  0.00  0.00    -0.150 NA
BRANCH   8   9
ATOM      9  C   LIG d   1       9.560  19.661   0.399  0.00  0.00     0.080 A 
ATOM     10  C   LIG d   1       9.947  21.029   0.358  0.00  0.00     0.054 A 
ATOM     11  C   LIG d   1       9.108  22.068  -0.122  0.00  0.00     0.076 A 
ATOM     12  C   LIG d   1       7.827  21.698  -0.568  0.00  0.00     0.082 A 
ATOM     13  C   LIG d   1       7.405  20.374  -0.537  0.00  0.00     0.040 A 
ATOM     14  C   LIG d   1       8.264  19.376  -0.059  0.00  0.00     0.036 A 
BRANCH  11  15
ATOM     15  C   LIG d   1       9.550  23.519  -0.164  0.00  0.00     0.212 C 
ATOM     16  O   LIG d   1       9.282  24.156  -1.253  0.00  0.00    -0.644 OA
ATOM     17  O   LIG d   1      10.141  24.054   0.830  0.00  0.00    -0.644 OA
ENDBRANCH  11  15
BRANCH  12  18
ATOM     18  O   LIG d   1       6.931  22.626  -1.056  0.00  0.00    -0.360 OA
ATOM     19  H   LIG d   1       6.315  22.772  -0.289  0.00  0.00     0.217 HD
ENDBRANCH  12  18
ENDBRANCH   8   9
ENDBRANCH   7   8
ENDBRANCH   4   7
BRANCH   1  20
ATOM     20  S   LIG d   1       6.756  13.327   2.088  0.00  0.00     0.247 S 
ATOM     21  O   LIG d   1       5.665  13.442   3.040  0.00  0.00    -0.205 OA
ATOM     22  O   LIG d   1       6.462  13.016   0.702  0.00  0.00    -0.205 OA
BRANCH  20  23
ATOM     23  N   LIG d   1       7.769  12.109   2.717  0.00  0.00    -0.165 NA
ATOM     24  H   LIG d   1       8.319  11.743   1.939  0.00  0.00     0.147 HD
BRANCH  23  25
ATOM     25  C   LIG d   1       7.094  11.000   3.273  0.00  0.00     0.116 C 
ATOM     26  N   LIG d   1       6.402  10.334   2.338  0.00  0.00    -0.248 NA
ATOM     27  C   LIG d   1       5.616   9.330   2.784  0.00  0.00     0.118 C 
ATOM     28  C   LIG d   1       5.592   8.900   4.102  0.00  0.00     0.019 C 
ATOM     29  C   LIG d   1       6.406   9.551   5.024  0.00  0.00     0.005 C 
ATOM     30  C   LIG d   1       7.176  10.630   4.603  0.00  0.00     0.045 C 
ENDBRANCH  23  25
ENDBRANCH  20  23
ENDBRANCH   1  20
TORSDOF 8
ENDMDL
MODEL 7
REMARK VINA RESULT:      -7.0     28.167     31.364
REMARK  8 active torsions:
REMARK  status: ('A' for Active; 'I' for Inactive)
REMARK    1  A    between atoms: S_1  and  N_7 
REMARK    2  A    between atoms: S_1  and  C_11 
REMARK    3  A    between atoms: O_4  and  C_22 
REMARK    4  A    between atoms: N_7  and  C_17 
REMARK    5  A    between atoms: N_8  and  N_10 
REMARK    6  A    between atoms: N_8  and  C_14 
REMARK    7  A    between atoms: N_10  and  C_18 
REMARK    8  A    between atoms: C_20  and  C_28 
ROOT
ATOM      1  C   LIG d   1      15.067  -3.445  -7.531  0.00  0.00     0.075 A 
ATOM      2  C   LIG d   1      15.630  -2.211  -7.215  0.00  0.00     0.027 A 
ATOM      3  C   LIG d   1      14.548  -4.266  -6.531  0.00  0.00     0.027 A 
ATOM      4  C   LIG d   1      15.220  -2.630  -4.837  0.00  0.00     0.079 A 
ATOM      5  C   LIG d   1      15.706  -1.820  -5.875  0.00  0.00     0.035 A 
ATOM      6  C   LIG d   1      14.639  -3.855  -5.200  0.00  0.00     0.035 A 
ENDROOT
BRANCH   4   7
ATOM      7  N   LIG d   1      15.290  -2.332  -3.518  0.00  0.00    -0.150 NA
BRANCH   7   8
ATOM      8  N   LIG d   1      16.398  -1.428  -3.126  0.00  0.00    -0.150 NA
BRANCH   8   9
ATOM      9  C   LIG d   1      17.483  -2.033  -2.561  0.00  0.00     0.080 A 
ATOM     10  C   LIG d   1      18.600  -1.246  -2.167  0.00  0.00     0.054 A 
ATOM     11  C   LIG d   1      19.772  -1.787  -1.578  0.00  0.00     0.076 A 
ATOM     12  C   LIG d   1      19.808  -3.180  -1.394  0.00  0.00     0.082 A 
ATOM     13  C   LIG d   1      18.742  -3.988  -1.773  0.00  0.00     0.040 A 
ATOM     14  C   LIG d   1      17.601  -3.415  -2.348  0.00  0.00     0.036 A 
BRANCH  11  15
ATOM     15  C   LIG d   1      20.946  -0.922  -1.157  0.00  0.00     0.212 C 
ATOM     16  O   LIG d   1      22.019  -1.555  -0.826  0.00  0.00    -0.644 OA
ATOM     17  O   LIG d   1      20.855   0.349  -1.147  0.00  0.00    -0.644 OA
ENDBRANCH  11  15
BRANCH  12  18
ATOM     18  O   LIG d   1      20.897  -3.810  -0.830  0.00  0.00    -0.360 OA
ATOM     19  H   LIG d   1      20.967  -4.654  -1.352  0.00  0.00     0.217 HD
ENDBRANCH  12  18
ENDBRANCH   8   9
ENDBRANCH   7   8
ENDBRANCH   4   7
BRANCH   1  20
ATOM     20  S   LIG d   1      15.004  -3.991  -9.209  0.00  0.00     0.247 S 
ATOM     21  O   LIG d   1      15.565  -2.953 -10.058  0.00  0.00    -0.205 OA
ATOM     22  O   LIG d   1      15.508  -5.347  -9.317  0.00  0.00    -0.205 OA
BRANCH  20  23
ATOM     23  N   LIG d   1      13.337  -3.999  -9.559  0.00  0.00    -0.165 NA
ATOM     24  H   LIG d   1      13.012  -4.962  -9.460  0.00  0.00     0.147 HD
BRANCH  23  25
ATOM     25  C   LIG d   1      13.000  -3.609 -10.874  0.00  0.00     0.116 C 
ATOM     26  N   LIG d   1      12.748  -2.293 -10.942  0.00  0.00    -0.248 NA
ATOM     27  C   LIG d   1      12.291  -1.837 -12.127  0.00  0.00     0.118 C 
ATOM     28  C   LIG d   1      12.191  -2.621 -13.267  0.00  0.00     0.019 C 
ATOM     29  C   LIG d   1      12.562  -3.959 -13.182  0.00  0.00     0.005 C 
ATOM     30  C   LIG d   1      12.975  -4.471 -11.956  0.00  0.00     0.045 C 
ENDBRANCH  23  25
ENDBRANCH  20  23
ENDBRANCH   1  20
TORSDOF 8
ENDMDL
MODEL 8
REMARK VINA RESULT:      -7.0     29.158     32.650
REMARK  8 active torsions:
REMARK  status: ('A' for Active; 'I' for Inactive)
REMARK    1  A    between atoms: S_1  and  N_7 
REMARK    2  A    between atoms: S_1  and  C_11 
REMARK    3  A    between atoms: O_4  and  C_22 
REMARK    4  A    between atoms: N_7  and  C_17 
REMARK    5  A    between atoms: N_8  and  N_10 
REMARK    6  A    between atoms: N_8  and  C_14 
REMARK    7  A    between atoms: N_10  and  C_18 
REMARK    8  A    between atoms: C_20  and  C_28 
ROOT
ATOM      1  C   LIG d   1      15.222  -2.905  -5.402  0.00  0.00     0.075 A 
ATOM      2  C   LIG d   1      15.636  -2.587  -6.694  0.00  0.00     0.027 A 
ATOM      3  C   LIG d   1      14.393  -4.002  -5.172  0.00  0.00     0.027 A 
ATOM      4  C   LIG d   1      14.322  -4.457  -7.577  0.00  0.00     0.079 A 
ATOM      5  C   LIG d   1      15.178  -3.361  -7.765  0.00  0.00     0.035 A 
ATOM      6  C   LIG d   1      13.947  -4.757  -6.258  0.00  0.00     0.035 A 
ENDROOT
BRANCH   4   7
ATOM      7  N   LIG d   1      13.815  -5.228  -8.567  0.00  0.00    -0.150 NA
BRANCH   7   8
ATOM      8  N   LIG d   1      12.601  -4.695  -9.234  0.00  0.00    -0.150 NA
BRANCH   8   9
ATOM      9  C   LIG d   1      12.623  -4.706 -10.598  0.00  0.00     0.080 A 
ATOM     10  C   LIG d   1      12.643  -3.474 -11.309  0.00  0.00     0.054 A 
ATOM     11  C   LIG d   1      12.660  -3.387 -12.726  0.00  0.00     0.076 A 
ATOM     12  C   LIG d   1      12.646  -4.598 -13.439  0.00  0.00     0.082 A 
ATOM     13  C   LIG d   1      12.617  -5.824 -12.784  0.00  0.00     0.040 A 
ATOM     14  C   LIG d   1      12.605  -5.868 -11.384  0.00  0.00     0.036 A 
BRANCH  11  15
ATOM     15  C   LIG d   1      12.693  -2.059 -13.459  0.00  0.00     0.212 C 
ATOM     16  O   LIG d   1      12.191  -1.055 -12.824  0.00  0.00    -0.644 OA
ATOM     17  O   LIG d   1      13.198  -1.965 -14.625  0.00  0.00    -0.644 OA
ENDBRANCH  11  15
BRANCH  12  18
ATOM     18  O   LIG d   1      12.662  -4.629 -14.818  0.00  0.00    -0.360 OA
ATOM     19  H   LIG d   1      12.737  -3.668 -15.066  0.00  0.00     0.217 HD
ENDBRANCH  12  18
ENDBRANCH   8   9
ENDBRANCH   7   8
ENDBRANCH   4   7
BRANCH   1  20
ATOM     20  S   LIG d   1      15.739  -1.916  -4.034  0.00  0.00     0.247 S 
ATOM     21  O   LIG d   1      17.105  -1.478  -4.266  0.00  0.00    -0.205 OA
ATOM     22  O   LIG d   1      14.722  -0.933  -3.710  0.00  0.00    -0.205 OA
BRANCH  20  23
ATOM     23  N   LIG d   1      15.841  -3.036  -2.754  0.00  0.00    -0.165 NA
ATOM     24  H   LIG d   1      15.711  -2.515  -1.886  0.00  0.00     0.147 HD
BRANCH  23  25
ATOM     25  C   LIG d   1      17.086  -3.692  -2.632  0.00  0.00     0.116 C 
ATOM     26  N   LIG d   1      17.932  -2.989  -1.864  0.00  0.00    -0.248 NA
ATOM     27  C   LIG d   1      19.194  -3.462  -1.786  0.00  0.00     0.118 C 
ATOM     28  C   LIG d   1      19.601  -4.663  -2.346  0.00  0.00     0.019 C 
ATOM     29  C   LIG d   1      18.665  -5.416  -3.048  0.00  0.00     0.005 C 
ATOM     30  C   LIG d   1      17.375  -4.920  -3.200  0.00  0.00     0.045 C 
ENDBRANCH  23  25
ENDBRANCH  20  23
ENDBRANCH   1  20
TORSDOF 8
ENDMDL
MODEL 9
REMARK VINA RESULT:      -6.9     25.363     30.193
REMARK  8 active torsions:
REMARK  status: ('A' for Active; 'I' for Inactive)
REMARK    1  A    between atoms: S_1  and  N_7 
REMARK    2  A    between atoms: S_1  and  C_11 
REMARK    3  A    between atoms: O_4  and  C_22 
REMARK    4  A    between atoms: N_7  and  C_17 
REMARK    5  A    between atoms: N_8  and  N_10 
REMARK    6  A    between atoms: N_8  and  C_14 
REMARK    7  A    between atoms: N_10  and  C_18 
REMARK    8  A    between atoms: C_20  and  C_28 
ROOT
ATOM      1  C   LIG d   1       7.893  14.635   1.853  0.00  0.00     0.075 A 
ATOM      2  C   LIG d   1       7.233  15.742   2.383  0.00  0.00     0.027 A 
ATOM      3  C   LIG d   1       9.187  14.754   1.349  0.00  0.00     0.027 A 
ATOM      4  C   LIG d   1       9.162  17.152   1.843  0.00  0.00     0.079 A 
ATOM      5  C   LIG d   1       7.870  16.986   2.367  0.00  0.00     0.035 A 
ATOM      6  C   LIG d   1       9.800  16.008   1.340  0.00  0.00     0.035 A 
ENDROOT
BRANCH   4   7
ATOM      7  N   LIG d   1       9.825  18.330   1.764  0.00  0.00    -0.150 NA
BRANCH   7   8
ATOM      8  N   LIG d   1       9.979  18.887   0.398  0.00  0.00    -0.150 NA
BRANCH   8   9
ATOM      9  C   LIG d   1       9.097  19.869   0.057  0.00  0.00     0.080 A 
ATOM     10  C   LIG d   1       9.572  21.188  -0.181  0.00  0.00     0.054 A 
ATOM     11  C   LIG d   1       8.729  22.274  -0.534  0.00  0.00     0.076 A 
ATOM     12  C   LIG d   1       7.354  22.006  -0.638  0.00  0.00     0.082 A 
ATOM     13  C   LIG d   1       6.845  20.733  -0.404  0.00  0.00     0.040 A 
ATOM     14  C   LIG d   1       7.710  19.686  -0.062  0.00  0.00     0.036 A 
BRANCH  11  15
ATOM     15  C   LIG d   1       9.265  23.670  -0.793  0.00  0.00     0.212 C 
ATOM     16  O   LIG d   1      10.243  24.045  -0.040  0.00  0.00    -0.644 OA
ATOM     17  O   LIG d   1       8.769  24.405  -1.708  0.00  0.00    -0.644 OA
ENDBRANCH  11  15
BRANCH  12  18
ATOM     18  O   LIG d   1       6.445  22.987  -0.976  0.00  0.00    -0.360 OA
ATOM     19  H   LIG d   1       7.019  23.707  -1.354  0.00  0.00     0.217 HD
ENDBRANCH  12  18
ENDBRANCH   8   9
ENDBRANCH   7   8
ENDBRANCH   4   7
BRANCH   1  20
ATOM     20  S   LIG d   1       7.095  13.061   1.811  0.00  0.00     0.247 S 
ATOM     21  O   LIG d   1       5.755  13.202   2.355  0.00  0.00    -0.205 OA
ATOM     22  O   LIG d   1       7.273  12.441   0.511  0.00  0.00    -0.205 OA
BRANCH  20  23
ATOM     23  N   LIG d   1       7.953  12.152   2.969  0.00  0.00    -0.165 NA
ATOM     24  H   LIG d   1       7.358  11.367   3.238  0.00  0.00     0.147 HD
BRANCH  23  25
ATOM     25  C   LIG d   1       8.253  12.840   4.166  0.00  0.00     0.116 C 
ATOM     26  N   LIG d   1       9.574  13.026   4.302  0.00  0.00    -0.248 NA
ATOM     27  C   LIG d   1       9.980  13.560   5.473  0.00  0.00     0.118 C 
ATOM     28  C   LIG d   1       9.111  14.018   6.453  0.00  0.00     0.019 C 
ATOM     29  C   LIG d   1       7.743  13.902   6.228  0.00  0.00     0.005 C 
ATOM     30  C   LIG d   1       7.299  13.296   5.058  0.00  0.00     0.045 C 
ENDBRANCH  23  25
ENDBRANCH  20  23
ENDBRANCH   1  20
TORSDOF 8
ENDMDL
