MODEL 1
REMARK minimizedAffinity -7.16078472REMARK CNNscore 0.548210621REMARK CNNaffinity 6.17291546REMARK  13 active torsions:
REMARK  status: ('A' for Active; 'I' for Inactive)
REMARK    1  A    between atoms: S_2  and  C_10 
REMARK    2  A    between atoms: S_2  and  C_13 
REMARK    3  A    between atoms: O_5  and  C_23 
REMARK    4  A    between atoms: C_7  and  C_10 
REMARK    5  A    between atoms: C_7  and  C_11 
REMARK    6  A    between atoms: C_11  and  C_12 
REMARK    7  A    between atoms: C_13  and  C_15 
REMARK    8  A    between atoms: C_13  and  C_14 
REMARK    9  A    between atoms: C_14  and  C_16 
REMARK   10  A    between atoms: C_16  and  C_19 
REMARK   11  A    between atoms: C_20  and  C_23 
REMARK   12  A    between atoms: C_21  and  C_28 
REMARK   13  A    between atoms: C_32  and  C_33 
ROOT
ATOM      1  C   LIG d   1      14.483   0.076 -15.244  0.00  0.00     0.080 C 
ENDROOT
BRANCH   1   2
ATOM      2  S   LIG d   1      14.699  -1.213 -13.950  0.00  0.00    -0.159 SA
BRANCH   2   3
ATOM      3  C   LIG d   1      13.232  -0.838 -12.933  0.00  0.00     0.084 C 
BRANCH   3   4
ATOM      4  C   LIG d   1      12.154  -1.876 -13.176  0.00  0.00    -0.022 A 
ATOM      5  C   LIG d   1      12.254  -2.709 -14.443  0.00  0.00     0.011 A 
ATOM      6  C   LIG d   1      11.189  -1.662 -14.333  0.00  0.00     0.011 A 
BRANCH   4   7
ATOM      7  C   LIG d   1      11.639  -2.593 -11.930  0.00  0.00     0.123 C 
BRANCH   7   8
ATOM      8  C   LIG d   1      12.720  -2.813 -10.860  0.00  0.00     0.173 C 
ATOM      9  O   LIG d   1      13.620  -3.651 -11.161  0.00  0.00    -0.648 OA
ATOM     10  O   LIG d   1      12.586  -2.128  -9.807  0.00  0.00    -0.648 OA
ENDBRANCH   7   8
ENDBRANCH   4   7
ENDBRANCH   3   4
ENDBRANCH   2   3
ENDBRANCH   1   2
BRANCH   1  11
ATOM     11  C   LIG d   1      15.170   1.382 -14.864  0.00  0.00    -0.043 A 
ATOM     12  C   LIG d   1      16.456   1.704 -15.333  0.00  0.00     0.019 A 
ATOM     13  C   LIG d   1      17.098   2.893 -14.960  0.00  0.00    -0.036 A 
ATOM     14  C   LIG d   1      16.425   3.790 -14.126  0.00  0.00     0.011 A 
ATOM     15  C   LIG d   1      15.137   3.499 -13.672  0.00  0.00     0.001 A 
ATOM     16  C   LIG d   1      14.517   2.301 -14.031  0.00  0.00     0.008 A 
BRANCH  13  17
ATOM     17  C   LIG d   1      18.496   3.085 -15.373  0.00  0.00     0.014 C 
ATOM     18  C   LIG d   1      19.526   3.301 -14.538  0.00  0.00     0.032 C 
BRANCH  18  19
ATOM     19  C   LIG d   1      20.926   3.443 -14.958  0.00  0.00     0.057 A 
ATOM     20  N   LIG d   1      21.745   3.956 -14.008  0.00  0.00    -0.248 NA
ATOM     21  C   LIG d   1      23.049   4.107 -14.292  0.00  0.00     0.069 A 
ATOM     22  C   LIG d   1      23.595   3.770 -15.550  0.00  0.00    -0.007 A 
ATOM     23  C   LIG d   1      23.900   4.609 -13.319  0.00  0.00     0.056 A 
ATOM     24  C   LIG d   1      22.727   3.272 -16.525  0.00  0.00     0.016 A 
ATOM     25  C   LIG d   1      24.966   3.936 -15.801  0.00  0.00     0.015 A 
ATOM     26  C   LIG d   1      21.377   3.112 -16.229  0.00  0.00     0.032 A 
ATOM     27  C   LIG d   1      25.802   4.439 -14.806  0.00  0.00     0.025 A 
ATOM     28  C   LIG d   1      25.263   4.774 -13.569  0.00  0.00     0.036 A 
ATOM     29 CL   LIG d   1      26.288   5.398 -12.335  0.00  0.00    -0.084 Cl
ENDBRANCH  18  19
ENDBRANCH  13  17
ENDBRANCH   1  11
BRANCH   1  30
ATOM     30  C   LIG d   1      15.000  -0.481 -16.587  0.00  0.00     0.025 C 
BRANCH  30  31
ATOM     31  C   LIG d   1      13.864  -1.088 -17.432  0.00  0.00     0.040 C 
BRANCH  31  32
ATOM     32  C   LIG d   1      13.207  -0.076 -18.352  0.00  0.00    -0.049 A 
ATOM     33  C   LIG d   1      11.962  -0.246 -19.012  0.00  0.00    -0.019 A 
ATOM     34  C   LIG d   1      11.474   0.859 -19.756  0.00  0.00     0.011 A 
ATOM     35  C   LIG d   1      12.190   2.050 -19.896  0.00  0.00     0.001 A 
ATOM     36  C   LIG d   1      13.425   2.184 -19.286  0.00  0.00     0.001 A 
ATOM     37  C   LIG d   1      13.923   1.136 -18.522  0.00  0.00     0.007 A 
BRANCH  33  38
ATOM     38  C   LIG d   1      11.111  -1.529 -18.975  0.00  0.00     0.078 C 
ATOM     39  C   LIG d   1       9.864  -1.451 -19.872  0.00  0.00     0.051 C 
ATOM     40  C   LIG d   1      11.936  -2.790 -19.249  0.00  0.00     0.051 C 
BRANCH  38  41
ATOM     41  O   LIG d   1      10.579  -1.735 -17.645  0.00  0.00    -0.386 OA
ATOM     42  H   LIG d   1       9.902  -1.051 -17.506  0.00  0.00     0.211 HD
ENDBRANCH  38  41
ENDBRANCH  33  38
ENDBRANCH  31  32
ENDBRANCH  30  31
ENDBRANCH   1  30
TORSDOF 13
ENDMDL
MODEL 2
REMARK minimizedAffinity -8.49538994REMARK CNNscore 0.35996592REMARK CNNaffinity 6.94541645REMARK  13 active torsions:
REMARK  status: ('A' for Active; 'I' for Inactive)
REMARK    1  A    between atoms: S_2  and  C_10 
REMARK    2  A    between atoms: S_2  and  C_13 
REMARK    3  A    between atoms: O_5  and  C_23 
REMARK    4  A    between atoms: C_7  and  C_10 
REMARK    5  A    between atoms: C_7  and  C_11 
REMARK    6  A    between atoms: C_11  and  C_12 
REMARK    7  A    between atoms: C_13  and  C_15 
REMARK    8  A    between atoms: C_13  and  C_14 
REMARK    9  A    between atoms: C_14  and  C_16 
REMARK   10  A    between atoms: C_16  and  C_19 
REMARK   11  A    between atoms: C_20  and  C_23 
REMARK   12  A    between atoms: C_21  and  C_28 
REMARK   13  A    between atoms: C_32  and  C_33 
ROOT
ATOM      1  C   LIG d   1      10.249  -2.142  22.733  0.00  0.00     0.080 C 
ENDROOT
BRANCH   1   2
ATOM      2  S   LIG d   1       8.703  -1.635  21.874  0.00  0.00    -0.159 SA
BRANCH   2   3
ATOM      3  C   LIG d   1       9.180  -2.058  20.166  0.00  0.00     0.084 C 
BRANCH   3   4
ATOM      4  C   LIG d   1       7.945  -2.376  19.347  0.00  0.00    -0.022 A 
ATOM      5  C   LIG d   1       7.464  -3.817  19.330  0.00  0.00     0.011 A 
ATOM      6  C   LIG d   1       8.102  -3.240  18.104  0.00  0.00     0.011 A 
BRANCH   4   7
ATOM      7  C   LIG d   1       6.862  -1.298  19.343  0.00  0.00     0.123 C 
BRANCH   7   8
ATOM      8  C   LIG d   1       7.244  -0.050  18.531  0.00  0.00     0.173 C 
ATOM      9  O   LIG d   1       7.922   0.818  19.156  0.00  0.00    -0.648 OA
ATOM     10  O   LIG d   1       6.841  -0.040  17.334  0.00  0.00    -0.648 OA
ENDBRANCH   7   8
ENDBRANCH   4   7
ENDBRANCH   3   4
ENDBRANCH   2   3
ENDBRANCH   1   2
BRANCH   1  11
ATOM     11  C   LIG d   1      11.254  -1.000  22.812  0.00  0.00    -0.043 A 
ATOM     12  C   LIG d   1      10.844   0.331  23.010  0.00  0.00     0.019 A 
ATOM     13  C   LIG d   1      11.769   1.385  23.055  0.00  0.00    -0.036 A 
ATOM     14  C   LIG d   1      13.130   1.094  22.929  0.00  0.00     0.011 A 
ATOM     15  C   LIG d   1      13.556  -0.225  22.758  0.00  0.00     0.001 A 
ATOM     16  C   LIG d   1      12.625  -1.263  22.692  0.00  0.00     0.008 A 
BRANCH  13  17
ATOM     17  C   LIG d   1      11.250   2.759  23.116  0.00  0.00     0.014 C 
ATOM     18  C   LIG d   1       9.978   3.094  23.389  0.00  0.00     0.032 C 
BRANCH  18  19
ATOM     19  C   LIG d   1       9.482   4.473  23.495  0.00  0.00     0.057 A 
ATOM     20  N   LIG d   1      10.179   5.253  24.355  0.00  0.00    -0.248 NA
ATOM     21  C   LIG d   1       9.813   6.537  24.506  0.00  0.00     0.069 A 
ATOM     22  C   LIG d   1       8.717   7.097  23.816  0.00  0.00    -0.007 A 
ATOM     23  C   LIG d   1      10.534   7.350  25.367  0.00  0.00     0.056 A 
ATOM     24  C   LIG d   1       7.993   6.267  22.957  0.00  0.00     0.016 A 
ATOM     25  C   LIG d   1       8.373   8.447  23.998  0.00  0.00     0.015 A 
ATOM     26  C   LIG d   1       8.375   4.939  22.798  0.00  0.00     0.032 A 
ATOM     27  C   LIG d   1       9.115   9.245  24.865  0.00  0.00     0.025 A 
ATOM     28  C   LIG d   1      10.193   8.691  25.547  0.00  0.00     0.036 A 
ATOM     29 CL   LIG d   1      11.113   9.670  26.623  0.00  0.00    -0.084 Cl
ENDBRANCH  18  19
ENDBRANCH  13  17
ENDBRANCH   1  11
BRANCH   1  30
ATOM     30  C   LIG d   1       9.881  -2.689  24.128  0.00  0.00     0.025 C 
BRANCH  30  31
ATOM     31  C   LIG d   1       8.736  -3.716  24.059  0.00  0.00     0.040 C 
BRANCH  31  32
ATOM     32  C   LIG d   1       8.480  -4.405  25.387  0.00  0.00    -0.049 A 
ATOM     33  C   LIG d   1       7.437  -5.332  25.649  0.00  0.00    -0.019 A 
ATOM     34  C   LIG d   1       7.424  -5.938  26.931  0.00  0.00     0.011 A 
ATOM     35  C   LIG d   1       8.350  -5.617  27.927  0.00  0.00     0.001 A 
ATOM     36  C   LIG d   1       9.332  -4.677  27.673  0.00  0.00     0.001 A 
ATOM     37  C   LIG d   1       9.397  -4.083  26.418  0.00  0.00     0.007 A 
BRANCH  33  38
ATOM     38  C   LIG d   1       6.332  -5.723  24.650  0.00  0.00     0.078 C 
ATOM     39  C   LIG d   1       6.862  -5.960  23.226  0.00  0.00     0.051 C 
ATOM     40  C   LIG d   1       5.480  -6.895  25.146  0.00  0.00     0.051 C 
BRANCH  38  41
ATOM     41  O   LIG d   1       5.387  -4.637  24.502  0.00  0.00    -0.386 OA
ATOM     42  H   LIG d   1       5.848  -3.932  24.013  0.00  0.00     0.211 HD
ENDBRANCH  38  41
ENDBRANCH  33  38
ENDBRANCH  31  32
ENDBRANCH  30  31
ENDBRANCH   1  30
TORSDOF 13
ENDMDL
MODEL 3
REMARK minimizedAffinity -6.49638462REMARK CNNscore 0.293531001REMARK CNNaffinity 6.07500553REMARK  13 active torsions:
REMARK  status: ('A' for Active; 'I' for Inactive)
REMARK    1  A    between atoms: S_2  and  C_10 
REMARK    2  A    between atoms: S_2  and  C_13 
REMARK    3  A    between atoms: O_5  and  C_23 
REMARK    4  A    between atoms: C_7  and  C_10 
REMARK    5  A    between atoms: C_7  and  C_11 
REMARK    6  A    between atoms: C_11  and  C_12 
REMARK    7  A    between atoms: C_13  and  C_15 
REMARK    8  A    between atoms: C_13  and  C_14 
REMARK    9  A    between atoms: C_14  and  C_16 
REMARK   10  A    between atoms: C_16  and  C_19 
REMARK   11  A    between atoms: C_20  and  C_23 
REMARK   12  A    between atoms: C_21  and  C_28 
REMARK   13  A    between atoms: C_32  and  C_33 
ROOT
ATOM      1  C   LIG d   1       2.515 -24.633   8.281  0.00  0.00     0.080 C 
ENDROOT
BRANCH   1   2
ATOM      2  S   LIG d   1       0.753 -25.161   8.242  0.00  0.00    -0.159 SA
BRANCH   2   3
ATOM      3  C   LIG d   1       0.575 -25.672   9.983  0.00  0.00     0.084 C 
BRANCH   3   4
ATOM      4  C   LIG d   1      -0.893 -25.740  10.356  0.00  0.00    -0.022 A 
ATOM      5  C   LIG d   1      -1.246 -26.289  11.728  0.00  0.00     0.011 A 
ATOM      6  C   LIG d   1      -1.540 -27.109  10.509  0.00  0.00     0.011 A 
BRANCH   4   7
ATOM      7  C   LIG d   1      -1.756 -24.588   9.842  0.00  0.00     0.123 C 
BRANCH   7   8
ATOM      8  C   LIG d   1      -2.053 -23.523  10.910  0.00  0.00     0.173 C 
ATOM      9  O   LIG d   1      -3.260 -23.452  11.285  0.00  0.00    -0.648 OA
ATOM     10  O   LIG d   1      -1.056 -22.847  11.291  0.00  0.00    -0.648 OA
ENDBRANCH   7   8
ENDBRANCH   4   7
ENDBRANCH   3   4
ENDBRANCH   2   3
ENDBRANCH   1   2
BRANCH   1  11
ATOM     11  C   LIG d   1       2.653 -23.116   8.266  0.00  0.00    -0.043 A 
ATOM     12  C   LIG d   1       1.684 -22.281   8.851  0.00  0.00     0.019 A 
ATOM     13  C   LIG d   1       1.799 -20.884   8.813  0.00  0.00    -0.036 A 
ATOM     14  C   LIG d   1       2.920 -20.316   8.203  0.00  0.00     0.011 A 
ATOM     15  C   LIG d   1       3.904 -21.130   7.640  0.00  0.00     0.001 A 
ATOM     16  C   LIG d   1       3.769 -22.519   7.664  0.00  0.00     0.008 A 
BRANCH  13  17
ATOM     17  C   LIG d   1       0.673 -20.083   9.315  0.00  0.00     0.014 C 
ATOM     18  C   LIG d   1      -0.595 -20.174   8.883  0.00  0.00     0.032 C 
BRANCH  18  19
ATOM     19  C   LIG d   1      -1.720 -19.402   9.425  0.00  0.00     0.057 A 
ATOM     20  N   LIG d   1      -1.616 -18.063   9.247  0.00  0.00    -0.248 NA
ATOM     21  C   LIG d   1      -2.606 -17.272   9.694  0.00  0.00     0.069 A 
ATOM     22  C   LIG d   1      -3.742 -17.783  10.358  0.00  0.00    -0.007 A 
ATOM     23  C   LIG d   1      -2.521 -15.902   9.496  0.00  0.00     0.056 A 
ATOM     24  C   LIG d   1      -3.815 -19.163  10.557  0.00  0.00     0.016 A 
ATOM     25  C   LIG d   1      -4.758 -16.920  10.800  0.00  0.00     0.015 A 
ATOM     26  C   LIG d   1      -2.792 -19.982  10.092  0.00  0.00     0.032 A 
ATOM     27  C   LIG d   1      -4.651 -15.548  10.587  0.00  0.00     0.025 A 
ATOM     28  C   LIG d   1      -3.530 -15.046   9.935  0.00  0.00     0.036 A 
ATOM     29 CL   LIG d   1      -3.389 -13.351   9.670  0.00  0.00    -0.084 Cl
ENDBRANCH  18  19
ENDBRANCH  13  17
ENDBRANCH   1  11
BRANCH   1  30
ATOM     30  C   LIG d   1       3.192 -25.265   9.515  0.00  0.00     0.025 C 
BRANCH  30  31
ATOM     31  C   LIG d   1       4.531 -25.936   9.155  0.00  0.00     0.040 C 
BRANCH  31  32
ATOM     32  C   LIG d   1       4.910 -27.050  10.114  0.00  0.00    -0.049 A 
ATOM     33  C   LIG d   1       4.920 -28.435   9.806  0.00  0.00    -0.019 A 
ATOM     34  C   LIG d   1       5.397 -29.313  10.814  0.00  0.00     0.011 A 
ATOM     35  C   LIG d   1       5.792 -28.867  12.077  0.00  0.00     0.001 A 
ATOM     36  C   LIG d   1       5.732 -27.518  12.379  0.00  0.00     0.001 A 
ATOM     37  C   LIG d   1       5.300 -26.623  11.407  0.00  0.00     0.007 A 
BRANCH  33  38
ATOM     38  C   LIG d   1       4.458 -29.048   8.470  0.00  0.00     0.078 C 
ATOM     39  C   LIG d   1       2.992 -28.725   8.134  0.00  0.00     0.051 C 
ATOM     40  C   LIG d   1       5.399 -28.707   7.312  0.00  0.00     0.051 C 
BRANCH  38  41
ATOM     41  O   LIG d   1       4.497 -30.492   8.545  0.00  0.00    -0.386 OA
ATOM     42  H   LIG d   1       3.774 -30.760   9.140  0.00  0.00     0.211 HD
ENDBRANCH  38  41
ENDBRANCH  33  38
ENDBRANCH  31  32
ENDBRANCH  30  31
ENDBRANCH   1  30
TORSDOF 13
ENDMDL
MODEL 4
REMARK minimizedAffinity -6.86604643REMARK CNNscore 0.258813918REMARK CNNaffinity 6.3879385REMARK  13 active torsions:
REMARK  status: ('A' for Active; 'I' for Inactive)
REMARK    1  A    between atoms: S_2  and  C_10 
REMARK    2  A    between atoms: S_2  and  C_13 
REMARK    3  A    between atoms: O_5  and  C_23 
REMARK    4  A    between atoms: C_7  and  C_10 
REMARK    5  A    between atoms: C_7  and  C_11 
REMARK    6  A    between atoms: C_11  and  C_12 
REMARK    7  A    between atoms: C_13  and  C_15 
REMARK    8  A    between atoms: C_13  and  C_14 
REMARK    9  A    between atoms: C_14  and  C_16 
REMARK   10  A    between atoms: C_16  and  C_19 
REMARK   11  A    between atoms: C_20  and  C_23 
REMARK   12  A    between atoms: C_21  and  C_28 
REMARK   13  A    between atoms: C_32  and  C_33 
ROOT
ATOM      1  C   LIG d   1      22.603   7.377  -4.002  0.00  0.00     0.080 C 
ENDROOT
BRANCH   1   2
ATOM      2  S   LIG d   1      22.213   7.588  -2.217  0.00  0.00    -0.159 SA
BRANCH   2   3
ATOM      3  C   LIG d   1      22.005   9.400  -2.187  0.00  0.00     0.084 C 
BRANCH   3   4
ATOM      4  C   LIG d   1      20.537   9.751  -2.044  0.00  0.00    -0.022 A 
ATOM      5  C   LIG d   1      19.521   8.685  -2.418  0.00  0.00     0.011 A 
ATOM      6  C   LIG d   1      19.696   9.879  -3.306  0.00  0.00     0.011 A 
BRANCH   4   7
ATOM      7  C   LIG d   1      20.187  10.637  -0.850  0.00  0.00     0.123 C 
BRANCH   7   8
ATOM      8  C   LIG d   1      20.192   9.887   0.491  0.00  0.00     0.173 C 
ATOM      9  O   LIG d   1      21.322   9.789   1.054  0.00  0.00    -0.648 OA
ATOM     10  O   LIG d   1      19.067   9.461   0.876  0.00  0.00    -0.648 OA
ENDBRANCH   7   8
ENDBRANCH   4   7
ENDBRANCH   3   4
ENDBRANCH   2   3
ENDBRANCH   1   2
BRANCH   1  11
ATOM     11  C   LIG d   1      23.718   6.363  -4.222  0.00  0.00    -0.043 A 
ATOM     12  C   LIG d   1      24.341   6.210  -5.474  0.00  0.00     0.019 A 
ATOM     13  C   LIG d   1      25.349   5.258  -5.681  0.00  0.00    -0.036 A 
ATOM     14  C   LIG d   1      25.760   4.465  -4.606  0.00  0.00     0.011 A 
ATOM     15  C   LIG d   1      25.170   4.621  -3.350  0.00  0.00     0.001 A 
ATOM     16  C   LIG d   1      24.152   5.557  -3.161  0.00  0.00     0.008 A 
BRANCH  13  17
ATOM     17  C   LIG d   1      25.843   5.059  -7.052  0.00  0.00     0.014 C 
ATOM     18  C   LIG d   1      25.112   4.593  -8.077  0.00  0.00     0.032 C 
BRANCH  18  19
ATOM     19  C   LIG d   1      25.603   4.444  -9.454  0.00  0.00     0.057 A 
ATOM     20  N   LIG d   1      24.637   4.503 -10.402  0.00  0.00    -0.248 NA
ATOM     21  C   LIG d   1      24.990   4.395 -11.693  0.00  0.00     0.069 A 
ATOM     22  C   LIG d   1      26.328   4.204 -12.098  0.00  0.00    -0.007 A 
ATOM     23  C   LIG d   1      24.012   4.478 -12.672  0.00  0.00     0.056 A 
ATOM     24  C   LIG d   1      27.305   4.116 -11.103  0.00  0.00     0.016 A 
ATOM     25  C   LIG d   1      26.655   4.105 -13.461  0.00  0.00     0.015 A 
ATOM     26  C   LIG d   1      26.939   4.231  -9.767  0.00  0.00     0.032 A 
ATOM     27  C   LIG d   1      25.655   4.195 -14.426  0.00  0.00     0.025 A 
ATOM     28  C   LIG d   1      24.336   4.380 -14.025  0.00  0.00     0.036 A 
ATOM     29 CL   LIG d   1      23.094   4.489 -15.212  0.00  0.00    -0.084 Cl
ENDBRANCH  18  19
ENDBRANCH  13  17
ENDBRANCH   1  11
BRANCH   1  30
ATOM     30  C   LIG d   1      21.309   6.988  -4.747  0.00  0.00     0.025 C 
BRANCH  30  31
ATOM     31  C   LIG d   1      20.676   5.709  -4.169  0.00  0.00     0.040 C 
BRANCH  31  32
ATOM     32  C   LIG d   1      19.563   5.155  -5.040  0.00  0.00    -0.049 A 
ATOM     33  C   LIG d   1      19.550   3.872  -5.647  0.00  0.00    -0.019 A 
ATOM     34  C   LIG d   1      18.373   3.506  -6.348  0.00  0.00     0.011 A 
ATOM     35  C   LIG d   1      17.284   4.368  -6.496  0.00  0.00     0.001 A 
ATOM     36  C   LIG d   1      17.329   5.633  -5.939  0.00  0.00     0.001 A 
ATOM     37  C   LIG d   1      18.453   6.018  -5.218  0.00  0.00     0.007 A 
BRANCH  33  38
ATOM     38  C   LIG d   1      20.710   2.860  -5.598  0.00  0.00     0.078 C 
ATOM     39  C   LIG d   1      20.339   1.489  -6.186  0.00  0.00     0.051 C 
ATOM     40  C   LIG d   1      22.001   3.415  -6.207  0.00  0.00     0.051 C 
BRANCH  38  41
ATOM     41  O   LIG d   1      21.062   2.574  -4.223  0.00  0.00    -0.386 OA
ATOM     42  H   LIG d   1      20.332   2.049  -3.853  0.00  0.00     0.211 HD
ENDBRANCH  38  41
ENDBRANCH  33  38
ENDBRANCH  31  32
ENDBRANCH  30  31
ENDBRANCH   1  30
TORSDOF 13
ENDMDL
MODEL 5
REMARK minimizedAffinity -6.68913269REMARK CNNscore 0.254415303REMARK CNNaffinity 6.15692806REMARK  13 active torsions:
REMARK  status: ('A' for Active; 'I' for Inactive)
REMARK    1  A    between atoms: S_2  and  C_10 
REMARK    2  A    between atoms: S_2  and  C_13 
REMARK    3  A    between atoms: O_5  and  C_23 
REMARK    4  A    between atoms: C_7  and  C_10 
REMARK    5  A    between atoms: C_7  and  C_11 
REMARK    6  A    between atoms: C_11  and  C_12 
REMARK    7  A    between atoms: C_13  and  C_15 
REMARK    8  A    between atoms: C_13  and  C_14 
REMARK    9  A    between atoms: C_14  and  C_16 
REMARK   10  A    between atoms: C_16  and  C_19 
REMARK   11  A    between atoms: C_20  and  C_23 
REMARK   12  A    between atoms: C_21  and  C_28 
REMARK   13  A    between atoms: C_32  and  C_33 
ROOT
ATOM      1  C   LIG d   1      22.483   2.578  -5.787  0.00  0.00     0.080 C 
ENDROOT
BRANCH   1   2
ATOM      2  S   LIG d   1      23.356   1.526  -4.556  0.00  0.00    -0.159 SA
BRANCH   2   3
ATOM      3  C   LIG d   1      24.713   2.664  -4.125  0.00  0.00     0.084 C 
BRANCH   3   4
ATOM      4  C   LIG d   1      25.668   2.798  -5.295  0.00  0.00    -0.022 A 
ATOM      5  C   LIG d   1      25.938   1.555  -6.127  0.00  0.00     0.011 A 
ATOM      6  C   LIG d   1      27.009   2.081  -5.222  0.00  0.00     0.011 A 
BRANCH   4   7
ATOM      7  C   LIG d   1      25.598   4.122  -6.053  0.00  0.00     0.123 C 
BRANCH   7   8
ATOM      8  C   LIG d   1      25.614   5.354  -5.135  0.00  0.00     0.173 C 
ATOM      9  O   LIG d   1      26.689   5.540  -4.494  0.00  0.00    -0.648 OA
ATOM     10  O   LIG d   1      24.553   6.039  -5.132  0.00  0.00    -0.648 OA
ENDBRANCH   7   8
ENDBRANCH   4   7
ENDBRANCH   3   4
ENDBRANCH   2   3
ENDBRANCH   1   2
BRANCH   1  11
ATOM     11  C   LIG d   1      21.707   1.742  -6.797  0.00  0.00    -0.043 A 
ATOM     12  C   LIG d   1      20.432   1.225  -6.503  0.00  0.00     0.019 A 
ATOM     13  C   LIG d   1      19.730   0.434  -7.423  0.00  0.00    -0.036 A 
ATOM     14  C   LIG d   1      20.304   0.182  -8.672  0.00  0.00     0.011 A 
ATOM     15  C   LIG d   1      21.557   0.709  -8.991  0.00  0.00     0.001 A 
ATOM     16  C   LIG d   1      22.257   1.477  -8.058  0.00  0.00     0.008 A 
BRANCH  13  17
ATOM     17  C   LIG d   1      18.473  -0.189  -6.984  0.00  0.00     0.014 C 
ATOM     18  C   LIG d   1      17.637  -0.884  -7.773  0.00  0.00     0.032 C 
BRANCH  18  19
ATOM     19  C   LIG d   1      16.408  -1.543  -7.312  0.00  0.00     0.057 A 
ATOM     20  N   LIG d   1      15.674  -2.110  -8.300  0.00  0.00    -0.248 NA
ATOM     21  C   LIG d   1      14.540  -2.753  -7.975  0.00  0.00     0.069 A 
ATOM     22  C   LIG d   1      14.075  -2.844  -6.646  0.00  0.00    -0.007 A 
ATOM     23  C   LIG d   1      13.794  -3.357  -8.976  0.00  0.00     0.056 A 
ATOM     24  C   LIG d   1      14.831  -2.226  -5.647  0.00  0.00     0.016 A 
ATOM     25  C   LIG d   1      12.888  -3.534  -6.351  0.00  0.00     0.015 A 
ATOM     26  C   LIG d   1      16.007  -1.564  -5.983  0.00  0.00     0.032 A 
ATOM     27  C   LIG d   1      12.157  -4.136  -7.372  0.00  0.00     0.025 A 
ATOM     28  C   LIG d   1      12.615  -4.043  -8.682  0.00  0.00     0.036 A 
ATOM     29 CL   LIG d   1      11.717  -4.781  -9.951  0.00  0.00    -0.084 Cl
ENDBRANCH  18  19
ENDBRANCH  13  17
ENDBRANCH   1  11
BRANCH   1  30
ATOM     30  C   LIG d   1      21.574   3.570  -5.033  0.00  0.00     0.025 C 
BRANCH  30  31
ATOM     31  C   LIG d   1      21.342   4.862  -5.837  0.00  0.00     0.040 C 
BRANCH  31  32
ATOM     32  C   LIG d   1      19.878   5.251  -5.922  0.00  0.00    -0.049 A 
ATOM     33  C   LIG d   1      19.209   6.145  -5.046  0.00  0.00    -0.019 A 
ATOM     34  C   LIG d   1      17.857   6.451  -5.350  0.00  0.00     0.011 A 
ATOM     35  C   LIG d   1      17.176   5.872  -6.423  0.00  0.00     0.001 A 
ATOM     36  C   LIG d   1      17.827   4.965  -7.240  0.00  0.00     0.001 A 
ATOM     37  C   LIG d   1      19.160   4.663  -6.993  0.00  0.00     0.007 A 
BRANCH  33  38
ATOM     38  C   LIG d   1      19.840   6.802  -3.803  0.00  0.00     0.078 C 
ATOM     39  C   LIG d   1      21.244   7.369  -4.069  0.00  0.00     0.051 C 
ATOM     40  C   LIG d   1      18.917   7.839  -3.155  0.00  0.00     0.051 C 
BRANCH  38  41
ATOM     41  O   LIG d   1      20.045   5.813  -2.767  0.00  0.00    -0.386 OA
ATOM     42  H   LIG d   1      20.769   5.239  -3.070  0.00  0.00     0.211 HD
ENDBRANCH  38  41
ENDBRANCH  33  38
ENDBRANCH  31  32
ENDBRANCH  30  31
ENDBRANCH   1  30
TORSDOF 13
ENDMDL
MODEL 6
REMARK minimizedAffinity -7.35104847REMARK CNNscore 0.246138483REMARK CNNaffinity 6.39772463REMARK  13 active torsions:
REMARK  status: ('A' for Active; 'I' for Inactive)
REMARK    1  A    between atoms: S_2  and  C_10 
REMARK    2  A    between atoms: S_2  and  C_13 
REMARK    3  A    between atoms: O_5  and  C_23 
REMARK    4  A    between atoms: C_7  and  C_10 
REMARK    5  A    between atoms: C_7  and  C_11 
REMARK    6  A    between atoms: C_11  and  C_12 
REMARK    7  A    between atoms: C_13  and  C_15 
REMARK    8  A    between atoms: C_13  and  C_14 
REMARK    9  A    between atoms: C_14  and  C_16 
REMARK   10  A    between atoms: C_16  and  C_19 
REMARK   11  A    between atoms: C_20  and  C_23 
REMARK   12  A    between atoms: C_21  and  C_28 
REMARK   13  A    between atoms: C_32  and  C_33 
ROOT
ATOM      1  C   LIG d   1      22.545   6.582  -2.566  0.00  0.00     0.080 C 
ENDROOT
BRANCH   1   2
ATOM      2  S   LIG d   1      23.746   6.878  -3.928  0.00  0.00    -0.159 SA
BRANCH   2   3
ATOM      3  C   LIG d   1      25.002   7.815  -2.995  0.00  0.00     0.084 C 
BRANCH   3   4
ATOM      4  C   LIG d   1      25.220   9.170  -3.639  0.00  0.00    -0.022 A 
ATOM      5  C   LIG d   1      26.114  10.159  -2.909  0.00  0.00     0.011 A 
ATOM      6  C   LIG d   1      24.636  10.400  -2.958  0.00  0.00     0.011 A 
BRANCH   4   7
ATOM      7  C   LIG d   1      25.313   9.167  -5.164  0.00  0.00     0.123 C 
BRANCH   7   8
ATOM      8  C   LIG d   1      26.723   8.854  -5.690  0.00  0.00     0.173 C 
ATOM      9  O   LIG d   1      27.317   9.816  -6.259  0.00  0.00    -0.648 OA
ATOM     10  O   LIG d   1      27.126   7.673  -5.488  0.00  0.00    -0.648 OA
ENDBRANCH   7   8
ENDBRANCH   4   7
ENDBRANCH   3   4
ENDBRANCH   2   3
ENDBRANCH   1   2
BRANCH   1  11
ATOM     11  C   LIG d   1      21.958   7.884  -2.036  0.00  0.00    -0.043 A 
ATOM     12  C   LIG d   1      22.262   8.361  -0.749  0.00  0.00     0.019 A 
ATOM     13  C   LIG d   1      21.700   9.546  -0.253  0.00  0.00    -0.036 A 
ATOM     14  C   LIG d   1      20.841  10.281  -1.074  0.00  0.00     0.011 A 
ATOM     15  C   LIG d   1      20.549   9.836  -2.365  0.00  0.00     0.001 A 
ATOM     16  C   LIG d   1      21.096   8.643  -2.840  0.00  0.00     0.008 A 
BRANCH  13  17
ATOM     17  C   LIG d   1      21.952   9.897   1.153  0.00  0.00     0.014 C 
ATOM     18  C   LIG d   1      23.074   9.608   1.833  0.00  0.00     0.032 C 
BRANCH  18  19
ATOM     19  C   LIG d   1      23.333  10.005   3.223  0.00  0.00     0.057 A 
ATOM     20  N   LIG d   1      23.008  11.290   3.507  0.00  0.00    -0.248 NA
ATOM     21  C   LIG d   1      23.192  11.742   4.759  0.00  0.00     0.069 A 
ATOM     22  C   LIG d   1      23.728  10.935   5.784  0.00  0.00    -0.007 A 
ATOM     23  C   LIG d   1      22.841  13.048   5.065  0.00  0.00     0.056 A 
ATOM     24  C   LIG d   1      24.085   9.623   5.462  0.00  0.00     0.016 A 
ATOM     25  C   LIG d   1      23.896  11.446   7.081  0.00  0.00     0.015 A 
ATOM     26  C   LIG d   1      23.891   9.154   4.167  0.00  0.00     0.032 A 
ATOM     27  C   LIG d   1      23.532  12.760   7.366  0.00  0.00     0.025 A 
ATOM     28  C   LIG d   1      23.007  13.556   6.354  0.00  0.00     0.036 A 
ATOM     29 CL   LIG d   1      22.558  15.182   6.697  0.00  0.00    -0.084 Cl
ENDBRANCH  18  19
ENDBRANCH  13  17
ENDBRANCH   1  11
BRANCH   1  30
ATOM     30  C   LIG d   1      21.453   5.617  -3.072  0.00  0.00     0.025 C 
BRANCH  30  31
ATOM     31  C   LIG d   1      21.392   5.575  -4.610  0.00  0.00     0.040 C 
BRANCH  31  32
ATOM     32  C   LIG d   1      20.573   4.411  -5.138  0.00  0.00    -0.049 A 
ATOM     33  C   LIG d   1      19.279   4.505  -5.713  0.00  0.00    -0.019 A 
ATOM     34  C   LIG d   1      18.719   3.310  -6.233  0.00  0.00     0.011 A 
ATOM     35  C   LIG d   1      19.365   2.074  -6.147  0.00  0.00     0.001 A 
ATOM     36  C   LIG d   1      20.605   1.989  -5.540  0.00  0.00     0.001 A 
ATOM     37  C   LIG d   1      21.201   3.144  -5.047  0.00  0.00     0.007 A 
BRANCH  33  38
ATOM     38  C   LIG d   1      18.450   5.799  -5.815  0.00  0.00     0.078 C 
ATOM     39  C   LIG d   1      18.186   6.456  -4.450  0.00  0.00     0.051 C 
ATOM     40  C   LIG d   1      19.032   6.792  -6.825  0.00  0.00     0.051 C 
BRANCH  38  41
ATOM     41  O   LIG d   1      17.129   5.505  -6.330  0.00  0.00    -0.386 OA
ATOM     42  H   LIG d   1      16.656   5.028  -5.626  0.00  0.00     0.211 HD
ENDBRANCH  38  41
ENDBRANCH  33  38
ENDBRANCH  31  32
ENDBRANCH  30  31
ENDBRANCH   1  30
TORSDOF 13
ENDMDL
MODEL 7
REMARK minimizedAffinity -8.53222561REMARK CNNscore 0.193492115REMARK CNNaffinity 6.08497143REMARK  13 active torsions:
REMARK  status: ('A' for Active; 'I' for Inactive)
REMARK    1  A    between atoms: S_2  and  C_10 
REMARK    2  A    between atoms: S_2  and  C_13 
REMARK    3  A    between atoms: O_5  and  C_23 
REMARK    4  A    between atoms: C_7  and  C_10 
REMARK    5  A    between atoms: C_7  and  C_11 
REMARK    6  A    between atoms: C_11  and  C_12 
REMARK    7  A    between atoms: C_13  and  C_15 
REMARK    8  A    between atoms: C_13  and  C_14 
REMARK    9  A    between atoms: C_14  and  C_16 
REMARK   10  A    between atoms: C_16  and  C_19 
REMARK   11  A    between atoms: C_20  and  C_23 
REMARK   12  A    between atoms: C_21  and  C_28 
REMARK   13  A    between atoms: C_32  and  C_33 
ROOT
ATOM      1  C   LIG d   1      15.205  -2.409  -7.827  0.00  0.00     0.080 C 
ENDROOT
BRANCH   1   2
ATOM      2  S   LIG d   1      16.953  -2.965  -7.970  0.00  0.00    -0.159 SA
BRANCH   2   3
ATOM      3  C   LIG d   1      17.502  -1.825  -9.283  0.00  0.00     0.084 C 
BRANCH   3   4
ATOM      4  C   LIG d   1      18.976  -1.510  -9.113  0.00  0.00    -0.022 A 
ATOM      5  C   LIG d   1      19.572  -1.670  -7.725  0.00  0.00     0.011 A 
ATOM      6  C   LIG d   1      19.367  -0.296  -8.283  0.00  0.00     0.011 A 
BRANCH   4   7
ATOM      7  C   LIG d   1      19.871  -1.900 -10.288  0.00  0.00     0.123 C 
BRANCH   7   8
ATOM      8  C   LIG d   1      19.135  -2.689 -11.383  0.00  0.00     0.173 C 
ATOM      9  O   LIG d   1      19.039  -3.935 -11.183  0.00  0.00    -0.648 OA
ATOM     10  O   LIG d   1      18.708  -1.999 -12.351  0.00  0.00    -0.648 OA
ENDBRANCH   7   8
ENDBRANCH   4   7
ENDBRANCH   3   4
ENDBRANCH   2   3
ENDBRANCH   1   2
BRANCH   1  11
ATOM     11  C   LIG d   1      15.061  -1.231  -6.872  0.00  0.00    -0.043 A 
ATOM     12  C   LIG d   1      16.007  -0.191  -6.836  0.00  0.00     0.019 A 
ATOM     13  C   LIG d   1      15.887   0.879  -5.937  0.00  0.00    -0.036 A 
ATOM     14  C   LIG d   1      14.784   0.921  -5.081  0.00  0.00     0.011 A 
ATOM     15  C   LIG d   1      13.822  -0.090  -5.122  0.00  0.00     0.001 A 
ATOM     16  C   LIG d   1      13.963  -1.162  -6.005  0.00  0.00     0.008 A 
BRANCH  13  17
ATOM     17  C   LIG d   1      16.993   1.845  -5.860  0.00  0.00     0.014 C 
ATOM     18  C   LIG d   1      16.857   3.181  -5.910  0.00  0.00     0.032 C 
BRANCH  18  19
ATOM     19  C   LIG d   1      17.965   4.138  -5.784  0.00  0.00     0.057 A 
ATOM     20  N   LIG d   1      17.801   5.055  -4.800  0.00  0.00    -0.248 NA
ATOM     21  C   LIG d   1      18.770   5.963  -4.594  0.00  0.00     0.069 A 
ATOM     22  C   LIG d   1      19.943   6.008  -5.377  0.00  0.00    -0.007 A 
ATOM     23  C   LIG d   1      18.623   6.891  -3.575  0.00  0.00     0.056 A 
ATOM     24  C   LIG d   1      20.078   5.072  -6.406  0.00  0.00     0.016 A 
ATOM     25  C   LIG d   1      20.935   6.969  -5.122  0.00  0.00     0.015 A 
ATOM     26  C   LIG d   1      19.076   4.130  -6.616  0.00  0.00     0.032 A 
ATOM     27  C   LIG d   1      20.766   7.889  -4.090  0.00  0.00     0.025 A 
ATOM     28  C   LIG d   1      19.608   7.845  -3.321  0.00  0.00     0.036 A 
ATOM     29 CL   LIG d   1      19.391   8.981  -2.046  0.00  0.00    -0.084 Cl
ENDBRANCH  18  19
ENDBRANCH  13  17
ENDBRANCH   1  11
BRANCH   1  30
ATOM     30  C   LIG d   1      14.674  -2.081  -9.238  0.00  0.00     0.025 C 
BRANCH  30  31
ATOM     31  C   LIG d   1      13.137  -2.138  -9.302  0.00  0.00     0.040 C 
BRANCH  31  32
ATOM     32  C   LIG d   1      12.617  -2.544 -10.669  0.00  0.00    -0.049 A 
ATOM     33  C   LIG d   1      12.055  -3.805 -10.998  0.00  0.00    -0.019 A 
ATOM     34  C   LIG d   1      11.540  -3.956 -12.311  0.00  0.00     0.011 A 
ATOM     35  C   LIG d   1      11.618  -2.945 -13.272  0.00  0.00     0.001 A 
ATOM     36  C   LIG d   1      12.212  -1.737 -12.952  0.00  0.00     0.001 A 
ATOM     37  C   LIG d   1      12.700  -1.540 -11.666  0.00  0.00     0.007 A 
BRANCH  33  38
ATOM     38  C   LIG d   1      11.963  -5.008 -10.040  0.00  0.00     0.078 C 
ATOM     39  C   LIG d   1      11.323  -6.247 -10.688  0.00  0.00     0.051 C 
ATOM     40  C   LIG d   1      13.305  -5.336  -9.378  0.00  0.00     0.051 C 
BRANCH  38  41
ATOM     41  O   LIG d   1      11.089  -4.695  -8.930  0.00  0.00    -0.386 OA
ATOM     42  H   LIG d   1      10.185  -4.664  -9.289  0.00  0.00     0.211 HD
ENDBRANCH  38  41
ENDBRANCH  33  38
ENDBRANCH  31  32
ENDBRANCH  30  31
ENDBRANCH   1  30
TORSDOF 13
ENDMDL
MODEL 8
REMARK minimizedAffinity -8.95008087REMARK CNNscore 0.185387105REMARK CNNaffinity 6.00234079REMARK  13 active torsions:
REMARK  status: ('A' for Active; 'I' for Inactive)
REMARK    1  A    between atoms: S_2  and  C_10 
REMARK    2  A    between atoms: S_2  and  C_13 
REMARK    3  A    between atoms: O_5  and  C_23 
REMARK    4  A    between atoms: C_7  and  C_10 
REMARK    5  A    between atoms: C_7  and  C_11 
REMARK    6  A    between atoms: C_11  and  C_12 
REMARK    7  A    between atoms: C_13  and  C_15 
REMARK    8  A    between atoms: C_13  and  C_14 
REMARK    9  A    between atoms: C_14  and  C_16 
REMARK   10  A    between atoms: C_16  and  C_19 
REMARK   11  A    between atoms: C_20  and  C_23 
REMARK   12  A    between atoms: C_21  and  C_28 
REMARK   13  A    between atoms: C_32  and  C_33 
ROOT
ATOM      1  C   LIG d   1      15.058  -2.837  -7.823  0.00  0.00     0.080 C 
ENDROOT
BRANCH   1   2
ATOM      2  S   LIG d   1      16.717  -3.626  -7.714  0.00  0.00    -0.159 SA
BRANCH   2   3
ATOM      3  C   LIG d   1      16.192  -5.333  -7.345  0.00  0.00     0.084 C 
BRANCH   3   4
ATOM      4  C   LIG d   1      15.648  -5.414  -5.932  0.00  0.00    -0.022 A 
ATOM      5  C   LIG d   1      15.117  -6.756  -5.460  0.00  0.00     0.011 A 
ATOM      6  C   LIG d   1      14.156  -5.643  -5.741  0.00  0.00     0.011 A 
BRANCH   4   7
ATOM      7  C   LIG d   1      16.388  -4.571  -4.894  0.00  0.00     0.123 C 
BRANCH   7   8
ATOM      8  C   LIG d   1      17.662  -5.242  -4.356  0.00  0.00     0.173 C 
ATOM      9  O   LIG d   1      17.514  -5.914  -3.294  0.00  0.00    -0.648 OA
ATOM     10  O   LIG d   1      18.705  -5.048  -5.042  0.00  0.00    -0.648 OA
ENDBRANCH   7   8
ENDBRANCH   4   7
ENDBRANCH   3   4
ENDBRANCH   2   3
ENDBRANCH   1   2
BRANCH   1  11
ATOM     11  C   LIG d   1      14.944  -1.630  -6.900  0.00  0.00    -0.043 A 
ATOM     12  C   LIG d   1      15.860  -0.565  -6.960  0.00  0.00     0.019 A 
ATOM     13  C   LIG d   1      15.769   0.532  -6.093  0.00  0.00    -0.036 A 
ATOM     14  C   LIG d   1      14.722   0.576  -5.168  0.00  0.00     0.011 A 
ATOM     15  C   LIG d   1      13.788  -0.460  -5.112  0.00  0.00     0.001 A 
ATOM     16  C   LIG d   1      13.902  -1.559  -5.966  0.00  0.00     0.008 A 
BRANCH  13  17
ATOM     17  C   LIG d   1      16.849   1.529  -6.120  0.00  0.00     0.014 C 
ATOM     18  C   LIG d   1      16.728   2.811  -5.740  0.00  0.00     0.032 C 
BRANCH  18  19
ATOM     19  C   LIG d   1      17.827   3.786  -5.726  0.00  0.00     0.057 A 
ATOM     20  N   LIG d   1      17.698   4.761  -4.795  0.00  0.00    -0.248 NA
ATOM     21  C   LIG d   1      18.663   5.690  -4.693  0.00  0.00     0.069 A 
ATOM     22  C   LIG d   1      19.797   5.699  -5.532  0.00  0.00    -0.007 A 
ATOM     23  C   LIG d   1      18.552   6.678  -3.727  0.00  0.00     0.056 A 
ATOM     24  C   LIG d   1      19.896   4.702  -6.506  0.00  0.00     0.016 A 
ATOM     25  C   LIG d   1      20.787   6.684  -5.385  0.00  0.00     0.015 A 
ATOM     26  C   LIG d   1      18.898   3.738  -6.609  0.00  0.00     0.032 A 
ATOM     27  C   LIG d   1      20.655   7.665  -4.405  0.00  0.00     0.025 A 
ATOM     28  C   LIG d   1      19.535   7.657  -3.580  0.00  0.00     0.036 A 
ATOM     29 CL   LIG d   1      19.363   8.868  -2.369  0.00  0.00    -0.084 Cl
ENDBRANCH  18  19
ENDBRANCH  13  17
ENDBRANCH   1  11
BRANCH   1  30
ATOM     30  C   LIG d   1      14.783  -2.470  -9.296  0.00  0.00     0.025 C 
BRANCH  30  31
ATOM     31  C   LIG d   1      13.305  -2.104  -9.530  0.00  0.00     0.040 C 
BRANCH  31  32
ATOM     32  C   LIG d   1      12.794  -2.551 -10.887  0.00  0.00    -0.049 A 
ATOM     33  C   LIG d   1      12.286  -3.841 -11.194  0.00  0.00    -0.019 A 
ATOM     34  C   LIG d   1      11.769  -4.032 -12.502  0.00  0.00     0.011 A 
ATOM     35  C   LIG d   1      11.794  -3.033 -13.477  0.00  0.00     0.001 A 
ATOM     36  C   LIG d   1      12.336  -1.795 -13.178  0.00  0.00     0.001 A 
ATOM     37  C   LIG d   1      12.825  -1.559 -11.898  0.00  0.00     0.007 A 
BRANCH  33  38
ATOM     38  C   LIG d   1      12.255  -5.033 -10.220  0.00  0.00     0.078 C 
ATOM     39  C   LIG d   1      11.683  -4.669  -8.840  0.00  0.00     0.051 C 
ATOM     40  C   LIG d   1      11.567  -6.264 -10.819  0.00  0.00     0.051 C 
BRANCH  38  41
ATOM     41  O   LIG d   1      13.602  -5.482  -9.940  0.00  0.00    -0.386 OA
ATOM     42  H   LIG d   1      14.015  -4.795  -9.390  0.00  0.00     0.211 HD
ENDBRANCH  38  41
ENDBRANCH  33  38
ENDBRANCH  31  32
ENDBRANCH  30  31
ENDBRANCH   1  30
TORSDOF 13
ENDMDL
MODEL 9
REMARK minimizedAffinity -6.76051998REMARK CNNscore 0.184663996REMARK CNNaffinity 5.5846076REMARK  13 active torsions:
REMARK  status: ('A' for Active; 'I' for Inactive)
REMARK    1  A    between atoms: S_2  and  C_10 
REMARK    2  A    between atoms: S_2  and  C_13 
REMARK    3  A    between atoms: O_5  and  C_23 
REMARK    4  A    between atoms: C_7  and  C_10 
REMARK    5  A    between atoms: C_7  and  C_11 
REMARK    6  A    between atoms: C_11  and  C_12 
REMARK    7  A    between atoms: C_13  and  C_15 
REMARK    8  A    between atoms: C_13  and  C_14 
REMARK    9  A    between atoms: C_14  and  C_16 
REMARK   10  A    between atoms: C_16  and  C_19 
REMARK   11  A    between atoms: C_20  and  C_23 
REMARK   12  A    between atoms: C_21  and  C_28 
REMARK   13  A    between atoms: C_32  and  C_33 
ROOT
ATOM      1  C   LIG d   1      26.587  -1.282  19.949  0.00  0.00     0.080 C 
ENDROOT
BRANCH   1   2
ATOM      2  S   LIG d   1      27.124  -3.009  20.283  0.00  0.00    -0.159 SA
BRANCH   2   3
ATOM      3  C   LIG d   1      25.542  -3.860  19.972  0.00  0.00     0.084 C 
BRANCH   3   4
ATOM      4  C   LIG d   1      25.743  -4.977  18.967  0.00  0.00    -0.022 A 
ATOM      5  C   LIG d   1      26.730  -4.736  17.837  0.00  0.00     0.011 A 
ATOM      6  C   LIG d   1      25.263  -4.762  17.539  0.00  0.00     0.011 A 
BRANCH   4   7
ATOM      7  C   LIG d   1      25.694  -6.393  19.538  0.00  0.00     0.123 C 
BRANCH   7   8
ATOM      8  C   LIG d   1      27.077  -7.055  19.649  0.00  0.00     0.173 C 
ATOM      9  O   LIG d   1      27.800  -6.645  20.604  0.00  0.00    -0.648 OA
ATOM     10  O   LIG d   1      27.326  -7.935  18.778  0.00  0.00    -0.648 OA
ENDBRANCH   7   8
ENDBRANCH   4   7
ENDBRANCH   3   4
ENDBRANCH   2   3
ENDBRANCH   1   2
BRANCH   1  11
ATOM     11  C   LIG d   1      25.562  -1.215  18.824  0.00  0.00    -0.043 A 
ATOM     12  C   LIG d   1      25.947  -1.247  17.471  0.00  0.00     0.019 A 
ATOM     13  C   LIG d   1      25.005  -1.159  16.437  0.00  0.00    -0.036 A 
ATOM     14  C   LIG d   1      23.649  -1.067  16.765  0.00  0.00     0.011 A 
ATOM     15  C   LIG d   1      23.247  -1.061  18.102  0.00  0.00     0.001 A 
ATOM     16  C   LIG d   1      24.196  -1.126  19.124  0.00  0.00     0.008 A 
BRANCH  13  17
ATOM     17  C   LIG d   1      25.499  -1.049  15.057  0.00  0.00     0.014 C 
ATOM     18  C   LIG d   1      25.181  -0.067  14.197  0.00  0.00     0.032 C 
BRANCH  18  19
ATOM     19  C   LIG d   1      25.719   0.058  12.836  0.00  0.00     0.057 A 
ATOM     20  N   LIG d   1      25.393   1.214  12.210  0.00  0.00    -0.248 NA
ATOM     21  C   LIG d   1      25.855   1.429  10.967  0.00  0.00     0.069 A 
ATOM     22  C   LIG d   1      26.650   0.487  10.281  0.00  0.00    -0.007 A 
ATOM     23  C   LIG d   1      25.547   2.620  10.327  0.00  0.00     0.056 A 
ATOM     24  C   LIG d   1      26.949  -0.712  10.933  0.00  0.00     0.016 A 
ATOM     25  C   LIG d   1      27.119   0.757   8.985  0.00  0.00     0.015 A 
ATOM     26  C   LIG d   1      26.475  -0.932  12.222  0.00  0.00     0.032 A 
ATOM     27  C   LIG d   1      26.799   1.962   8.363  0.00  0.00     0.025 A 
ATOM     28  C   LIG d   1      26.012   2.888   9.040  0.00  0.00     0.036 A 
ATOM     29 CL   LIG d   1      25.610   4.378   8.278  0.00  0.00    -0.084 Cl
ENDBRANCH  18  19
ENDBRANCH  13  17
ENDBRANCH   1  11
BRANCH   1  30
ATOM     30  C   LIG d   1      26.050  -0.670  21.260  0.00  0.00     0.025 C 
BRANCH  30  31
ATOM     31  C   LIG d   1      26.054  -1.691  22.413  0.00  0.00     0.040 C 
BRANCH  31  32
ATOM     32  C   LIG d   1      24.691  -1.855  23.061  0.00  0.00    -0.049 A 
ATOM     33  C   LIG d   1      24.363  -2.804  24.064  0.00  0.00    -0.019 A 
ATOM     34  C   LIG d   1      23.055  -2.735  24.610  0.00  0.00     0.011 A 
ATOM     35  C   LIG d   1      22.099  -1.821  24.162  0.00  0.00     0.001 A 
ATOM     36  C   LIG d   1      22.418  -0.933  23.151  0.00  0.00     0.001 A 
ATOM     37  C   LIG d   1      23.699  -0.949  22.612  0.00  0.00     0.007 A 
BRANCH  33  38
ATOM     38  C   LIG d   1      25.315  -3.891  24.598  0.00  0.00     0.078 C 
ATOM     39  C   LIG d   1      24.805  -4.561  25.884  0.00  0.00     0.051 C 
ATOM     40  C   LIG d   1      25.693  -4.919  23.527  0.00  0.00     0.051 C 
BRANCH  38  41
ATOM     41  O   LIG d   1      26.579  -3.299  24.982  0.00  0.00    -0.386 OA
ATOM     42  H   LIG d   1      26.410  -2.780  25.787  0.00  0.00     0.211 HD
ENDBRANCH  38  41
ENDBRANCH  33  38
ENDBRANCH  31  32
ENDBRANCH  30  31
ENDBRANCH   1  30
TORSDOF 13
ENDMDL
