MODEL 1
REMARK VINA RESULT:      -4.3      0.000      0.000
REMARK  6 active torsions:
REMARK  status: ('A' for Active; 'I' for Inactive)
REMARK    1  A    between atoms: S_1  and  C_8 
REMARK    2  A    between atoms: S_1  and  C_10 
REMARK    3  A    between atoms: N_6  and  C_7 
REMARK    4  A    between atoms: C_7  and  C_9 
REMARK    5  A    between atoms: C_7  and  C_8 
REMARK    6  A    between atoms: C_10  and  C_11 
ROOT
ATOM      1  C   UNK d   1       9.745  15.575   1.746  0.00  0.00     0.292 C 
ENDROOT
BRANCH   1   2
ATOM      2  N   UNK d   1       9.242  14.692   0.634  0.00  0.00    -0.065 N 
ATOM      3  H   UNK d   1       9.138  13.711   0.868  0.00  0.00     0.275 HD
ATOM      4  H   UNK d   1       9.858  14.724  -0.221  0.00  0.00     0.275 HD
ATOM      5  H   UNK d   1       8.340  15.120   0.352  0.00  0.00     0.275 HD
ENDBRANCH   1   2
BRANCH   1   6
ATOM      6  C   UNK d   1      10.614  14.750   2.738  0.00  0.00     0.205 C 
ATOM      7  O   UNK d   1      10.034  13.662   3.060  0.00  0.00    -0.646 OA
ATOM      8  O   UNK d   1      11.739  15.209   3.052  0.00  0.00    -0.646 OA
ENDBRANCH   1   6
BRANCH   1   9
ATOM      9  C   UNK d   1       8.591  16.241   2.494  0.00  0.00     0.118 C 
BRANCH   9  10
ATOM     10  S   UNK d   1       8.622  18.078   2.335  0.00  0.00    -0.156 SA
BRANCH  10  11
ATOM     11  C   UNK d   1       8.155  18.267   0.569  0.00  0.00     0.186 C 
BRANCH  11  12
ATOM     12  C   UNK d   1       9.332  18.948  -0.138  0.00  0.00     0.182 C 
ATOM     13  O   UNK d   1      10.487  18.546   0.217  0.00  0.00    -0.647 OA
ATOM     14  O   UNK d   1       9.044  19.843  -0.974  0.00  0.00    -0.647 OA
ENDBRANCH  11  12
ENDBRANCH  10  11
ENDBRANCH   9  10
ENDBRANCH   1   9
TORSDOF 6
ENDMDL
MODEL 2
REMARK VINA RESULT:      -4.2     24.029     25.912
REMARK  6 active torsions:
REMARK  status: ('A' for Active; 'I' for Inactive)
REMARK    1  A    between atoms: S_1  and  C_8 
REMARK    2  A    between atoms: S_1  and  C_10 
REMARK    3  A    between atoms: N_6  and  C_7 
REMARK    4  A    between atoms: C_7  and  C_9 
REMARK    5  A    between atoms: C_7  and  C_8 
REMARK    6  A    between atoms: C_10  and  C_11 
ROOT
ATOM      1  C   UNK d   1       9.706  -0.772  21.861  0.00  0.00     0.292 C 
ENDROOT
BRANCH   1   2
ATOM      2  N   UNK d   1      10.676  -0.629  20.717  0.00  0.00    -0.065 N 
ATOM      3  H   UNK d   1      10.923  -1.492  20.244  0.00  0.00     0.275 HD
ATOM      4  H   UNK d   1      11.585  -0.185  21.009  0.00  0.00     0.275 HD
ATOM      5  H   UNK d   1      10.221   0.048  20.075  0.00  0.00     0.275 HD
ENDBRANCH   1   2
BRANCH   1   6
ATOM      6  C   UNK d   1       9.740  -2.223  22.419  0.00  0.00     0.205 C 
ATOM      7  O   UNK d   1      10.866  -2.479  22.961  0.00  0.00    -0.646 OA
ATOM      8  O   UNK d   1       8.701  -2.917  22.314  0.00  0.00    -0.646 OA
ENDBRANCH   1   6
BRANCH   1   9
ATOM      9  C   UNK d   1       8.284  -0.412  21.434  0.00  0.00     0.118 C 
BRANCH   9  10
ATOM     10  S   UNK d   1       8.161   1.311  20.788  0.00  0.00    -0.156 SA
BRANCH  10  11
ATOM     11  C   UNK d   1       6.999   1.060  19.388  0.00  0.00     0.186 C 
BRANCH  11  12
ATOM     12  C   UNK d   1       7.740   0.236  18.330  0.00  0.00     0.182 C 
ATOM     13  O   UNK d   1       7.011  -0.551  17.643  0.00  0.00    -0.647 OA
ATOM     14  O   UNK d   1       8.986   0.400  18.260  0.00  0.00    -0.647 OA
ENDBRANCH  11  12
ENDBRANCH  10  11
ENDBRANCH   9  10
ENDBRANCH   1   9
TORSDOF 6
ENDMDL
MODEL 3
REMARK VINA RESULT:      -4.1     16.430     17.982
REMARK  6 active torsions:
REMARK  status: ('A' for Active; 'I' for Inactive)
REMARK    1  A    between atoms: S_1  and  C_8 
REMARK    2  A    between atoms: S_1  and  C_10 
REMARK    3  A    between atoms: N_6  and  C_7 
REMARK    4  A    between atoms: C_7  and  C_9 
REMARK    5  A    between atoms: C_7  and  C_8 
REMARK    6  A    between atoms: C_10  and  C_11 
ROOT
ATOM      1  C   UNK d   1       5.531  26.680 -13.386  0.00  0.00     0.292 C 
ENDROOT
BRANCH   1   2
ATOM      2  N   UNK d   1       5.709  26.506 -14.872  0.00  0.00    -0.065 N 
ATOM      3  H   UNK d   1       5.580  25.562 -15.219  0.00  0.00     0.275 HD
ATOM      4  H   UNK d   1       6.660  26.812 -15.206  0.00  0.00     0.275 HD
ATOM      5  H   UNK d   1       5.031  27.169 -15.293  0.00  0.00     0.275 HD
ENDBRANCH   1   2
BRANCH   1   6
ATOM      6  C   UNK d   1       4.563  27.862 -13.094  0.00  0.00     0.205 C 
ATOM      7  O   UNK d   1       3.475  27.447 -12.574  0.00  0.00    -0.646 OA
ATOM      8  O   UNK d   1       4.961  29.024 -13.351  0.00  0.00    -0.646 OA
ENDBRANCH   1   6
BRANCH   1   9
ATOM      9  C   UNK d   1       6.869  26.918 -12.688  0.00  0.00     0.118 C 
BRANCH   9  10
ATOM     10  S   UNK d   1       6.942  26.123 -11.025  0.00  0.00    -0.156 SA
BRANCH  10  11
ATOM     11  C   UNK d   1       6.917  27.608  -9.945  0.00  0.00     0.186 C 
BRANCH  11  12
ATOM     12  C   UNK d   1       5.448  27.918  -9.640  0.00  0.00     0.182 C 
ATOM     13  O   UNK d   1       4.707  26.903  -9.436  0.00  0.00    -0.647 OA
ATOM     14  O   UNK d   1       5.116  29.133  -9.645  0.00  0.00    -0.647 OA
ENDBRANCH  11  12
ENDBRANCH  10  11
ENDBRANCH   9  10
ENDBRANCH   1   9
TORSDOF 6
ENDMDL
MODEL 4
REMARK VINA RESULT:      -4.1     16.707     17.560
REMARK  6 active torsions:
REMARK  status: ('A' for Active; 'I' for Inactive)
REMARK    1  A    between atoms: S_1  and  C_8 
REMARK    2  A    between atoms: S_1  and  C_10 
REMARK    3  A    between atoms: N_6  and  C_7 
REMARK    4  A    between atoms: C_7  and  C_9 
REMARK    5  A    between atoms: C_7  and  C_8 
REMARK    6  A    between atoms: C_10  and  C_11 
ROOT
ATOM      1  C   UNK d   1       7.010  25.764 -11.613  0.00  0.00     0.292 C 
ENDROOT
BRANCH   1   2
ATOM      2  N   UNK d   1       8.106  24.730 -11.632  0.00  0.00    -0.065 N 
ATOM      3  H   UNK d   1       8.921  24.968 -12.187  0.00  0.00     0.275 HD
ATOM      4  H   UNK d   1       7.775  23.794 -11.986  0.00  0.00     0.275 HD
ATOM      5  H   UNK d   1       8.346  24.588 -10.633  0.00  0.00     0.275 HD
ENDBRANCH   1   2
BRANCH   1   6
ATOM      6  C   UNK d   1       7.014  26.579 -12.937  0.00  0.00     0.205 C 
ATOM      7  O   UNK d   1       8.112  27.212 -13.083  0.00  0.00    -0.646 OA
ATOM      8  O   UNK d   1       6.010  26.489 -13.684  0.00  0.00    -0.646 OA
ENDBRANCH   1   6
BRANCH   1   9
ATOM      9  C   UNK d   1       7.156  26.708 -10.420  0.00  0.00     0.118 C 
BRANCH   9  10
ATOM     10  S   UNK d   1       5.531  27.369  -9.849  0.00  0.00    -0.156 SA
BRANCH  10  11
ATOM     11  C   UNK d   1       5.712  29.138 -10.308  0.00  0.00     0.186 C 
BRANCH  11  12
ATOM     12  C   UNK d   1       5.047  29.318 -11.677  0.00  0.00     0.182 C 
ATOM     13  O   UNK d   1       4.047  28.561 -11.902  0.00  0.00    -0.647 OA
ATOM     14  O   UNK d   1       5.563  30.171 -12.446  0.00  0.00    -0.647 OA
ENDBRANCH  11  12
ENDBRANCH  10  11
ENDBRANCH   9  10
ENDBRANCH   1   9
TORSDOF 6
ENDMDL
MODEL 5
REMARK VINA RESULT:      -4.0     24.410     26.844
REMARK  6 active torsions:
REMARK  status: ('A' for Active; 'I' for Inactive)
REMARK    1  A    between atoms: S_1  and  C_8 
REMARK    2  A    between atoms: S_1  and  C_10 
REMARK    3  A    between atoms: N_6  and  C_7 
REMARK    4  A    between atoms: C_7  and  C_9 
REMARK    5  A    between atoms: C_7  and  C_8 
REMARK    6  A    between atoms: C_10  and  C_11 
ROOT
ATOM      1  C   UNK d   1       8.812  -0.092  20.477  0.00  0.00     0.292 C 
ENDROOT
BRANCH   1   2
ATOM      2  N   UNK d   1      10.307  -0.209  20.337  0.00  0.00    -0.065 N 
ATOM      3  H   UNK d   1      10.678  -1.152  20.388  0.00  0.00     0.275 HD
ATOM      4  H   UNK d   1      10.829   0.348  21.064  0.00  0.00     0.275 HD
ATOM      5  H   UNK d   1      10.518   0.241  19.427  0.00  0.00     0.275 HD
ENDBRANCH   1   2
BRANCH   1   6
ATOM      6  C   UNK d   1       8.212   0.648  19.248  0.00  0.00     0.205 C 
ATOM      7  O   UNK d   1       8.908   0.437  18.201  0.00  0.00    -0.646 OA
ATOM      8  O   UNK d   1       7.149   1.294  19.414  0.00  0.00    -0.646 OA
ENDBRANCH   1   6
BRANCH   1   9
ATOM      9  C   UNK d   1       8.428   0.638  21.763  0.00  0.00     0.118 C 
BRANCH   9  10
ATOM     10  S   UNK d   1       8.675  -0.407  23.262  0.00  0.00    -0.156 SA
BRANCH  10  11
ATOM     11  C   UNK d   1       8.043  -2.020  22.651  0.00  0.00     0.186 C 
BRANCH  11  12
ATOM     12  C   UNK d   1       9.246  -2.960  22.533  0.00  0.00     0.182 C 
ATOM     13  O   UNK d   1       8.963  -4.196  22.414  0.00  0.00    -0.647 OA
ATOM     14  O   UNK d   1      10.385  -2.427  22.589  0.00  0.00    -0.647 OA
ENDBRANCH  11  12
ENDBRANCH  10  11
ENDBRANCH   9  10
ENDBRANCH   1   9
TORSDOF 6
ENDMDL
MODEL 6
REMARK VINA RESULT:      -3.9     16.693     18.099
REMARK  6 active torsions:
REMARK  status: ('A' for Active; 'I' for Inactive)
REMARK    1  A    between atoms: S_1  and  C_8 
REMARK    2  A    between atoms: S_1  and  C_10 
REMARK    3  A    between atoms: N_6  and  C_7 
REMARK    4  A    between atoms: C_7  and  C_9 
REMARK    5  A    between atoms: C_7  and  C_8 
REMARK    6  A    between atoms: C_10  and  C_11 
ROOT
ATOM      1  C   UNK d   1       6.645  29.179 -10.675  0.00  0.00     0.292 C 
ENDROOT
BRANCH   1   2
ATOM      2  N   UNK d   1       8.129  29.219 -10.930  0.00  0.00    -0.065 N 
ATOM      3  H   UNK d   1       8.433  29.886 -11.631  0.00  0.00     0.275 HD
ATOM      4  H   UNK d   1       8.516  28.286 -11.228  0.00  0.00     0.275 HD
ATOM      5  H   UNK d   1       8.546  29.417 -10.000  0.00  0.00     0.275 HD
ENDBRANCH   1   2
BRANCH   1   6
ATOM      6  C   UNK d   1       6.231  27.786 -10.119  0.00  0.00     0.205 C 
ATOM      7  O   UNK d   1       5.000  27.547 -10.350  0.00  0.00    -0.646 OA
ATOM      8  O   UNK d   1       7.118  27.084  -9.577  0.00  0.00    -0.646 OA
ENDBRANCH   1   6
BRANCH   1   9
ATOM      9  C   UNK d   1       5.852  29.490 -11.943  0.00  0.00     0.118 C 
BRANCH   9  10
ATOM     10  S   UNK d   1       6.948  29.843 -13.384  0.00  0.00    -0.156 SA
BRANCH  10  11
ATOM     11  C   UNK d   1       6.556  28.406 -14.459  0.00  0.00     0.186 C 
BRANCH  11  12
ATOM     12  C   UNK d   1       6.835  27.141 -13.641  0.00  0.00     0.182 C 
ATOM     13  O   UNK d   1       8.027  27.024 -13.207  0.00  0.00    -0.647 OA
ATOM     14  O   UNK d   1       5.875  26.339 -13.499  0.00  0.00    -0.647 OA
ENDBRANCH  11  12
ENDBRANCH  10  11
ENDBRANCH   9  10
ENDBRANCH   1   9
TORSDOF 6
ENDMDL
MODEL 7
REMARK VINA RESULT:      -3.9     23.852     25.223
REMARK  6 active torsions:
REMARK  status: ('A' for Active; 'I' for Inactive)
REMARK    1  A    between atoms: S_1  and  C_8 
REMARK    2  A    between atoms: S_1  and  C_10 
REMARK    3  A    between atoms: N_6  and  C_7 
REMARK    4  A    between atoms: C_7  and  C_9 
REMARK    5  A    between atoms: C_7  and  C_8 
REMARK    6  A    between atoms: C_10  and  C_11 
ROOT
ATOM      1  C   UNK d   1       7.840   1.179  20.186  0.00  0.00     0.292 C 
ENDROOT
BRANCH   1   2
ATOM      2  N   UNK d   1       6.681   1.946  20.769  0.00  0.00    -0.065 N 
ATOM      3  H   UNK d   1       6.446   2.810  20.293  0.00  0.00     0.275 HD
ATOM      4  H   UNK d   1       6.831   2.202  21.780  0.00  0.00     0.275 HD
ATOM      5  H   UNK d   1       5.894   1.271  20.759  0.00  0.00     0.275 HD
ENDBRANCH   1   2
BRANCH   1   6
ATOM      6  C   UNK d   1       7.522   0.751  18.725  0.00  0.00     0.205 C 
ATOM      7  O   UNK d   1       8.559   0.835  17.987  0.00  0.00    -0.646 OA
ATOM      8  O   UNK d   1       6.359   0.357  18.469  0.00  0.00    -0.646 OA
ENDBRANCH   1   6
BRANCH   1   9
ATOM      9  C   UNK d   1       8.174  -0.051  21.028  0.00  0.00     0.118 C 
BRANCH   9  10
ATOM     10  S   UNK d   1       9.984  -0.405  21.062  0.00  0.00    -0.156 SA
BRANCH  10  11
ATOM     11  C   UNK d   1      10.445   0.375  22.660  0.00  0.00     0.186 C 
BRANCH  11  12
ATOM     12  C   UNK d   1      11.146   1.697  22.330  0.00  0.00     0.182 C 
ATOM     13  O   UNK d   1      11.196   1.994  21.093  0.00  0.00    -0.647 OA
ATOM     14  O   UNK d   1      11.620   2.341  23.303  0.00  0.00    -0.647 OA
ENDBRANCH  11  12
ENDBRANCH  10  11
ENDBRANCH   9  10
ENDBRANCH   1   9
TORSDOF 6
ENDMDL
MODEL 8
REMARK VINA RESULT:      -3.9     24.149     26.491
REMARK  6 active torsions:
REMARK  status: ('A' for Active; 'I' for Inactive)
REMARK    1  A    between atoms: S_1  and  C_8 
REMARK    2  A    between atoms: S_1  and  C_10 
REMARK    3  A    between atoms: N_6  and  C_7 
REMARK    4  A    between atoms: C_7  and  C_9 
REMARK    5  A    between atoms: C_7  and  C_8 
REMARK    6  A    between atoms: C_10  and  C_11 
ROOT
ATOM      1  C   UNK d   1       8.129   1.129  20.278  0.00  0.00     0.292 C 
ENDROOT
BRANCH   1   2
ATOM      2  N   UNK d   1       6.856   1.806  20.713  0.00  0.00    -0.065 N 
ATOM      3  H   UNK d   1       6.091   1.185  20.953  0.00  0.00     0.275 HD
ATOM      4  H   UNK d   1       6.477   2.466  19.984  0.00  0.00     0.275 HD
ATOM      5  H   UNK d   1       7.140   2.399  21.515  0.00  0.00     0.275 HD
ENDBRANCH   1   2
BRANCH   1   6
ATOM      6  C   UNK d   1       7.895   0.335  18.960  0.00  0.00     0.205 C 
ATOM      7  O   UNK d   1       8.861   0.505  18.145  0.00  0.00    -0.646 OA
ATOM      8  O   UNK d   1       6.862  -0.371  18.877  0.00  0.00    -0.646 OA
ENDBRANCH   1   6
BRANCH   1   9
ATOM      9  C   UNK d   1       8.661   0.193  21.361  0.00  0.00     0.118 C 
BRANCH   9  10
ATOM     10  S   UNK d   1      10.476   0.390  21.627  0.00  0.00    -0.156 SA
BRANCH  10  11
ATOM     11  C   UNK d   1      10.960  -1.357  21.925  0.00  0.00     0.186 C 
BRANCH  11  12
ATOM     12  C   UNK d   1      11.076  -1.540  23.441  0.00  0.00     0.182 C 
ATOM     13  O   UNK d   1      11.447  -0.508  24.089  0.00  0.00    -0.647 OA
ATOM     14  O   UNK d   1      10.817  -2.688  23.891  0.00  0.00    -0.647 OA
ENDBRANCH  11  12
ENDBRANCH  10  11
ENDBRANCH   9  10
ENDBRANCH   1   9
TORSDOF 6
ENDMDL
MODEL 9
REMARK VINA RESULT:      -3.8     13.550     14.796
REMARK  6 active torsions:
REMARK  status: ('A' for Active; 'I' for Inactive)
REMARK    1  A    between atoms: S_1  and  C_8 
REMARK    2  A    between atoms: S_1  and  C_10 
REMARK    3  A    between atoms: N_6  and  C_7 
REMARK    4  A    between atoms: C_7  and  C_9 
REMARK    5  A    between atoms: C_7  and  C_8 
REMARK    6  A    between atoms: C_10  and  C_11 
ROOT
ATOM      1  C   UNK d   1      18.269   6.024  -4.478  0.00  0.00     0.292 C 
ENDROOT
BRANCH   1   2
ATOM      2  N   UNK d   1      16.916   6.681  -4.398  0.00  0.00    -0.065 N 
ATOM      3  H   UNK d   1      16.542   7.017  -5.278  0.00  0.00     0.275 HD
ATOM      4  H   UNK d   1      16.902   7.505  -3.742  0.00  0.00     0.275 HD
ATOM      5  H   UNK d   1      16.305   5.962  -3.966  0.00  0.00     0.275 HD
ENDBRANCH   1   2
BRANCH   1   6
ATOM      6  C   UNK d   1      18.116   4.476  -4.497  0.00  0.00     0.205 C 
ATOM      7  O   UNK d   1      18.531   3.961  -3.407  0.00  0.00    -0.646 OA
ATOM      8  O   UNK d   1      17.595   3.950  -5.509  0.00  0.00    -0.646 OA
ENDBRANCH   1   6
BRANCH   1   9
ATOM      9  C   UNK d   1      19.163   6.444  -3.313  0.00  0.00     0.118 C 
BRANCH   9  10
ATOM     10  S   UNK d   1      20.292   7.832  -3.763  0.00  0.00    -0.156 SA
BRANCH  10  11
ATOM     11  C   UNK d   1      19.651   9.153  -2.658  0.00  0.00     0.186 C 
BRANCH  11  12
ATOM     12  C   UNK d   1      20.863   9.929  -2.134  0.00  0.00     0.182 C 
ATOM     13  O   UNK d   1      21.984   9.598  -2.641  0.00  0.00    -0.647 OA
ATOM     14  O   UNK d   1      20.638  10.793  -1.246  0.00  0.00    -0.647 OA
ENDBRANCH  11  12
ENDBRANCH  10  11
ENDBRANCH   9  10
ENDBRANCH   1   9
TORSDOF 6
ENDMDL
