REMARK  10 active torsions:
REMARK  status: ('A' for Active; 'I' for Inactive)
REMARK       I    between atoms: N_6  and  C_20 
REMARK    1  A    between atoms: N_6  and  C_21 
REMARK    2  A    between atoms: N_6  and  C_24 
REMARK    3  A    between atoms: N_7  and  C_14 
REMARK    4  A    between atoms: N_7  and  C_22 
REMARK    5  A    between atoms: N_9  and  C_35 
REMARK    6  A    between atoms: C_12  and  C_14 
REMARK    7  A    between atoms: C_15  and  C_20 
REMARK    8  A    between atoms: C_21  and  C_23 
REMARK    9  A    between atoms: C_23  and  C_31 
REMARK   10  A    between atoms: C_30  and  C_35 
ROOT
ATOM      1  N   LIG d   1       1.129  18.117 -10.102  0.00  0.00    -0.337 N 
ATOM      2  N   LIG d   1       3.135  17.181 -10.225  0.00  0.00    -0.232 NA
ATOM      3  C   LIG d   1       1.147  17.158  -9.117  0.00  0.00     0.064 A 
ATOM      4  C   LIG d   1       2.325  18.060 -10.784  0.00  0.00     0.120 A 
ATOM      5  C   LIG d   1       2.428  16.616  -9.191  0.00  0.00     0.086 A 
ATOM      6  C   LIG d   1       1.891  15.173  -7.330  0.00  0.00     0.035 A 
ATOM      7  C   LIG d   1       2.827  15.635  -8.272  0.00  0.00     0.051 A 
ATOM      8  C   LIG d   1       0.204  16.737  -8.172  0.00  0.00     0.033 A 
ATOM      9  C   LIG d   1       0.603  15.731  -7.285  0.00  0.00     0.019 A 
ATOM     10  C   LIG d   1       0.058  19.050 -10.358  0.00  0.00     0.158 C 
ENDROOT
BRANCH   4  11
ATOM     11  C   LIG d   1       2.663  18.906 -11.978  0.00  0.00     0.171 C 
BRANCH  11  12
ATOM     12  N   LIG d   1       3.790  19.804 -11.734  0.00  0.00    -0.286 NA
ATOM     13  H   LIG d   1       3.950  20.374 -12.569  0.00  0.00     0.128 HD
BRANCH  12  14
ATOM     14  C   LIG d   1       3.796  20.584 -10.571  0.00  0.00     0.008 A 
ATOM     15  C   LIG d   1       2.715  20.641  -9.682  0.00  0.00     0.024 A 
ATOM     16  C   LIG d   1       2.793  21.369  -8.487  0.00  0.00     0.017 A 
ATOM     17  C   LIG d   1       3.974  22.036  -8.143  0.00  0.00     0.009 A 
ATOM     18  C   LIG d   1       5.076  21.941  -8.994  0.00  0.00     0.017 A 
ATOM     19  C   LIG d   1       4.987  21.214 -10.186  0.00  0.00     0.024 A 
BRANCH  17  20
ATOM     20  C   LIG d   1       4.058  22.833  -6.895  0.00  0.00     0.123 C 
ATOM     21  N   LIG d   1       2.951  23.119  -6.243  0.00  0.00    -0.284 NA
ATOM     22  H   LIG d   1       3.076  23.673  -5.388  0.00  0.00     0.188 HD
BRANCH  20  23
ATOM     23  N   LIG d   1       5.167  23.239  -6.413  0.00  0.00    -0.384 N 
ATOM     24  H   LIG d   1       6.010  22.795  -6.759  0.00  0.00     0.157 HD
ATOM     25  H   LIG d   1       5.217  24.004  -5.754  0.00  0.00     0.157 HD
ENDBRANCH  20  23
ENDBRANCH  17  20
ENDBRANCH  12  14
ENDBRANCH  11  12
ENDBRANCH   4  11
BRANCH   6  26
ATOM     26  C   LIG d   1       2.256  14.179  -6.277  0.00  0.00     0.259 C 
ATOM     27  O   LIG d   1       2.127  12.988  -6.583  0.00  0.00    -0.267 OA
ATOM     28  N   LIG d   1       2.615  14.602  -4.990  0.00  0.00    -0.298 N 
BRANCH  28  29
ATOM     29  C   LIG d   1       2.505  13.610  -3.906  0.00  0.00     0.144 C 
BRANCH  29  30
ATOM     30  C   LIG d   1       2.770  14.198  -2.525  0.00  0.00     0.133 C 
BRANCH  30  31
ATOM     31  C   LIG d   1       4.097  13.768  -1.920  0.00  0.00     0.174 C 
ATOM     32  O   LIG d   1       5.043  13.637  -2.746  0.00  0.00    -0.648 OA
ATOM     33  O   LIG d   1       4.112  13.620  -0.666  0.00  0.00    -0.648 OA
ENDBRANCH  30  31
ENDBRANCH  29  30
ENDBRANCH  28  29
BRANCH  28  34
ATOM     34  C   LIG d   1       3.382  15.784  -4.765  0.00  0.00     0.132 A 
ATOM     35  N   LIG d   1       2.865  16.738  -3.950  0.00  0.00    -0.243 NA
ATOM     36  C   LIG d   1       3.582  17.865  -3.744  0.00  0.00     0.119 A 
ATOM     37  C   LIG d   1       4.813  18.114  -4.320  0.00  0.00     0.019 A 
ATOM     38  C   LIG d   1       5.341  17.141  -5.152  0.00  0.00     0.005 A 
ATOM     39  C   LIG d   1       4.620  15.969  -5.378  0.00  0.00     0.051 A 
ENDBRANCH  28  34
ENDBRANCH   6  26
TORSDOF 10
