MODEL 1
REMARK VINA RESULT:      -8.7      0.000      0.000
REMARK  13 active torsions:
REMARK  status: ('A' for Active; 'I' for Inactive)
REMARK    1  A    between atoms: S_2  and  C_10 
REMARK    2  A    between atoms: S_2  and  C_13 
REMARK    3  A    between atoms: O_5  and  C_23 
REMARK    4  A    between atoms: C_7  and  C_10 
REMARK    5  A    between atoms: C_7  and  C_11 
REMARK    6  A    between atoms: C_11  and  C_12 
REMARK    7  A    between atoms: C_13  and  C_15 
REMARK    8  A    between atoms: C_13  and  C_14 
REMARK    9  A    between atoms: C_14  and  C_16 
REMARK   10  A    between atoms: C_16  and  C_19 
REMARK   11  A    between atoms: C_20  and  C_23 
REMARK   12  A    between atoms: C_21  and  C_28 
REMARK   13  A    between atoms: C_32  and  C_33 
ROOT
ATOM      1  C   LIG d   1      14.283  -2.391  -7.851  0.00  0.00     0.080 C 
ENDROOT
BRANCH   1   2
ATOM      2  S   LIG d   1      14.858  -4.005  -7.181  0.00  0.00    -0.159 SA
BRANCH   2   3
ATOM      3  C   LIG d   1      16.609  -3.582  -6.895  0.00  0.00     0.084 C 
BRANCH   3   4
ATOM      4  C   LIG d   1      16.965  -3.811  -5.439  0.00  0.00    -0.022 A 
ATOM      5  C   LIG d   1      15.843  -3.727  -4.419  0.00  0.00     0.011 A 
ATOM      6  C   LIG d   1      16.868  -2.637  -4.475  0.00  0.00     0.011 A 
BRANCH   4   7
ATOM      7  C   LIG d   1      18.040  -4.867  -5.184  0.00  0.00     0.123 C 
BRANCH   7   8
ATOM      8  C   LIG d   1      17.529  -6.078  -4.387  0.00  0.00     0.173 C 
ATOM      9  O   LIG d   1      17.866  -6.106  -3.167  0.00  0.00    -0.648 OA
ATOM     10  O   LIG d   1      16.829  -6.900  -5.042  0.00  0.00    -0.648 OA
ENDBRANCH   7   8
ENDBRANCH   4   7
ENDBRANCH   3   4
ENDBRANCH   2   3
ENDBRANCH   1   2
BRANCH   1  11
ATOM     11  C   LIG d   1      14.377  -1.281  -6.812  0.00  0.00    -0.043 A 
ATOM     12  C   LIG d   1      15.349  -0.268  -6.900  0.00  0.00     0.019 A 
ATOM     13  C   LIG d   1      15.451   0.738  -5.929  0.00  0.00    -0.036 A 
ATOM     14  C   LIG d   1      14.543   0.745  -4.867  0.00  0.00     0.011 A 
ATOM     15  C   LIG d   1      13.555  -0.238  -4.778  0.00  0.00     0.001 A 
ATOM     16  C   LIG d   1      13.477  -1.247  -5.739  0.00  0.00     0.008 A 
BRANCH  13  17
ATOM     17  C   LIG d   1      16.584   1.670  -6.014  0.00  0.00     0.014 C 
ATOM     18  C   LIG d   1      16.603   2.913  -5.505  0.00  0.00     0.032 C 
BRANCH  18  19
ATOM     19  C   LIG d   1      17.759   3.818  -5.555  0.00  0.00     0.057 A 
ATOM     20  N   LIG d   1      17.697   4.852  -4.680  0.00  0.00    -0.248 NA
ATOM     21  C   LIG d   1      18.717   5.725  -4.638  0.00  0.00     0.069 A 
ATOM     22  C   LIG d   1      19.843   5.616  -5.482  0.00  0.00    -0.007 A 
ATOM     23  C   LIG d   1      18.675   6.772  -3.730  0.00  0.00     0.056 A 
ATOM     24  C   LIG d   1      19.872   4.561  -6.397  0.00  0.00     0.016 A 
ATOM     25  C   LIG d   1      20.891   6.547  -5.398  0.00  0.00     0.015 A 
ATOM     26  C   LIG d   1      18.817   3.655  -6.438  0.00  0.00     0.032 A 
ATOM     27  C   LIG d   1      20.827   7.589  -4.476  0.00  0.00     0.025 A 
ATOM     28  C   LIG d   1      19.716   7.696  -3.646  0.00  0.00     0.036 A 
ATOM     29 CL   LIG d   1      19.628   8.983  -2.506  0.00  0.00    -0.084 Cl
ENDBRANCH  18  19
ENDBRANCH  13  17
ENDBRANCH   1  11
BRANCH   1  30
ATOM     30  C   LIG d   1      15.095  -2.067  -9.123  0.00  0.00     0.025 C 
BRANCH  30  31
ATOM     31  C   LIG d   1      14.919  -3.146 -10.207  0.00  0.00     0.040 C 
BRANCH  31  32
ATOM     32  C   LIG d   1      13.727  -2.886 -11.111  0.00  0.00    -0.049 A 
ATOM     33  C   LIG d   1      12.558  -3.687 -11.187  0.00  0.00    -0.019 A 
ATOM     34  C   LIG d   1      11.515  -3.221 -12.028  0.00  0.00     0.011 A 
ATOM     35  C   LIG d   1      11.627  -2.061 -12.798  0.00  0.00     0.001 A 
ATOM     36  C   LIG d   1      12.792  -1.316 -12.750  0.00  0.00     0.001 A 
ATOM     37  C   LIG d   1      13.825  -1.723 -11.914  0.00  0.00     0.007 A 
BRANCH  33  38
ATOM     38  C   LIG d   1      12.342  -5.010 -10.428  0.00  0.00     0.078 C 
ATOM     39  C   LIG d   1      11.725  -4.811  -9.033  0.00  0.00     0.051 C 
ATOM     40  C   LIG d   1      11.570  -6.042 -11.254  0.00  0.00     0.051 C 
BRANCH  38  41
ATOM     41  O   LIG d   1      13.616  -5.647 -10.167  0.00  0.00    -0.386 OA
ATOM     42  H   LIG d   1      13.977  -5.910 -11.031  0.00  0.00     0.211 HD
ENDBRANCH  38  41
ENDBRANCH  33  38
ENDBRANCH  31  32
ENDBRANCH  30  31
ENDBRANCH   1  30
TORSDOF 13
ENDMDL
MODEL 2
REMARK VINA RESULT:      -8.7      2.433      6.024
REMARK  13 active torsions:
REMARK  status: ('A' for Active; 'I' for Inactive)
REMARK    1  A    between atoms: S_2  and  C_10 
REMARK    2  A    between atoms: S_2  and  C_13 
REMARK    3  A    between atoms: O_5  and  C_23 
REMARK    4  A    between atoms: C_7  and  C_10 
REMARK    5  A    between atoms: C_7  and  C_11 
REMARK    6  A    between atoms: C_11  and  C_12 
REMARK    7  A    between atoms: C_13  and  C_15 
REMARK    8  A    between atoms: C_13  and  C_14 
REMARK    9  A    between atoms: C_14  and  C_16 
REMARK   10  A    between atoms: C_16  and  C_19 
REMARK   11  A    between atoms: C_20  and  C_23 
REMARK   12  A    between atoms: C_21  and  C_28 
REMARK   13  A    between atoms: C_32  and  C_33 
ROOT
ATOM      1  C   LIG d   1      15.099  -2.679  -9.516  0.00  0.00     0.080 C 
ENDROOT
BRANCH   1   2
ATOM      2  S   LIG d   1      14.402  -2.494 -11.209  0.00  0.00    -0.159 SA
BRANCH   2   3
ATOM      3  C   LIG d   1      12.632  -2.425 -10.778  0.00  0.00     0.084 C 
BRANCH   3   4
ATOM      4  C   LIG d   1      11.838  -3.327 -11.702  0.00  0.00    -0.022 A 
ATOM      5  C   LIG d   1      12.480  -3.720 -13.022  0.00  0.00     0.011 A 
ATOM      6  C   LIG d   1      11.336  -2.754 -13.020  0.00  0.00     0.011 A 
BRANCH   4   7
ATOM      7  C   LIG d   1      10.992  -4.395 -11.012  0.00  0.00     0.123 C 
BRANCH   7   8
ATOM      8  C   LIG d   1      11.609  -4.911  -9.702  0.00  0.00     0.173 C 
ATOM      9  O   LIG d   1      11.009  -4.560  -8.644  0.00  0.00    -0.648 OA
ATOM     10  O   LIG d   1      12.639  -5.630  -9.836  0.00  0.00    -0.648 OA
ENDBRANCH   7   8
ENDBRANCH   4   7
ENDBRANCH   3   4
ENDBRANCH   2   3
ENDBRANCH   1   2
BRANCH   1  11
ATOM     11  C   LIG d   1      16.543  -2.199  -9.442  0.00  0.00    -0.043 A 
ATOM     12  C   LIG d   1      16.996  -1.382  -8.390  0.00  0.00     0.019 A 
ATOM     13  C   LIG d   1      18.319  -0.920  -8.337  0.00  0.00    -0.036 A 
ATOM     14  C   LIG d   1      19.210  -1.307  -9.342  0.00  0.00     0.011 A 
ATOM     15  C   LIG d   1      18.783  -2.138 -10.379  0.00  0.00     0.001 A 
ATOM     16  C   LIG d   1      17.458  -2.575 -10.434  0.00  0.00     0.008 A 
BRANCH  13  17
ATOM     17  C   LIG d   1      18.673   0.047  -7.288  0.00  0.00     0.014 C 
ATOM     18  C   LIG d   1      19.841   0.706  -7.206  0.00  0.00     0.032 C 
BRANCH  18  19
ATOM     19  C   LIG d   1      20.165   1.706  -6.180  0.00  0.00     0.057 A 
ATOM     20  N   LIG d   1      19.315   2.760  -6.138  0.00  0.00    -0.248 NA
ATOM     21  C   LIG d   1      19.518   3.719  -5.220  0.00  0.00     0.069 A 
ATOM     22  C   LIG d   1      20.595   3.679  -4.309  0.00  0.00    -0.007 A 
ATOM     23  C   LIG d   1      18.640   4.790  -5.154  0.00  0.00     0.056 A 
ATOM     24  C   LIG d   1      21.477   2.598  -4.389  0.00  0.00     0.016 A 
ATOM     25  C   LIG d   1      20.765   4.699  -3.359  0.00  0.00     0.015 A 
ATOM     26  C   LIG d   1      21.264   1.604  -5.337  0.00  0.00     0.032 A 
ATOM     27  C   LIG d   1      19.868   5.764  -3.310  0.00  0.00     0.025 A 
ATOM     28  C   LIG d   1      18.809   5.804  -4.210  0.00  0.00     0.036 A 
ATOM     29 CL   LIG d   1      17.698   7.117  -4.158  0.00  0.00    -0.084 Cl
ENDBRANCH  18  19
ENDBRANCH  13  17
ENDBRANCH   1  11
BRANCH   1  30
ATOM     30  C   LIG d   1      14.186  -1.930  -8.523  0.00  0.00     0.025 C 
BRANCH  30  31
ATOM     31  C   LIG d   1      13.706  -2.845  -7.381  0.00  0.00     0.040 C 
BRANCH  31  32
ATOM     32  C   LIG d   1      14.656  -2.861  -6.198  0.00  0.00    -0.049 A 
ATOM     33  C   LIG d   1      14.785  -1.833  -5.228  0.00  0.00    -0.019 A 
ATOM     34  C   LIG d   1      15.665  -2.080  -4.143  0.00  0.00     0.011 A 
ATOM     35  C   LIG d   1      16.423  -3.248  -4.038  0.00  0.00     0.001 A 
ATOM     36  C   LIG d   1      16.323  -4.222  -5.016  0.00  0.00     0.001 A 
ATOM     37  C   LIG d   1      15.448  -4.030  -6.078  0.00  0.00     0.007 A 
BRANCH  33  38
ATOM     38  C   LIG d   1      14.043  -0.483  -5.268  0.00  0.00     0.078 C 
ATOM     39  C   LIG d   1      14.174   0.315  -3.960  0.00  0.00     0.051 C 
ATOM     40  C   LIG d   1      14.418   0.357  -6.492  0.00  0.00     0.051 C 
BRANCH  38  41
ATOM     41  O   LIG d   1      12.620  -0.702  -5.410  0.00  0.00    -0.386 OA
ATOM     42  H   LIG d   1      12.233   0.150  -5.678  0.00  0.00     0.211 HD
ENDBRANCH  38  41
ENDBRANCH  33  38
ENDBRANCH  31  32
ENDBRANCH  30  31
ENDBRANCH   1  30
TORSDOF 13
ENDMDL
MODEL 3
REMARK VINA RESULT:      -8.5      1.567      6.026
REMARK  13 active torsions:
REMARK  status: ('A' for Active; 'I' for Inactive)
REMARK    1  A    between atoms: S_2  and  C_10 
REMARK    2  A    between atoms: S_2  and  C_13 
REMARK    3  A    between atoms: O_5  and  C_23 
REMARK    4  A    between atoms: C_7  and  C_10 
REMARK    5  A    between atoms: C_7  and  C_11 
REMARK    6  A    between atoms: C_11  and  C_12 
REMARK    7  A    between atoms: C_13  and  C_15 
REMARK    8  A    between atoms: C_13  and  C_14 
REMARK    9  A    between atoms: C_14  and  C_16 
REMARK   10  A    between atoms: C_16  and  C_19 
REMARK   11  A    between atoms: C_20  and  C_23 
REMARK   12  A    between atoms: C_21  and  C_28 
REMARK   13  A    between atoms: C_32  and  C_33 
ROOT
ATOM      1  C   LIG d   1      15.036  -2.495  -7.564  0.00  0.00     0.080 C 
ENDROOT
BRANCH   1   2
ATOM      2  S   LIG d   1      13.561  -3.573  -7.781  0.00  0.00    -0.159 SA
BRANCH   2   3
ATOM      3  C   LIG d   1      13.930  -4.222  -9.444  0.00  0.00     0.084 C 
BRANCH   3   4
ATOM      4  C   LIG d   1      12.640  -4.523 -10.181  0.00  0.00    -0.022 A 
ATOM      5  C   LIG d   1      11.419  -4.872  -9.347  0.00  0.00     0.011 A 
ATOM      6  C   LIG d   1      12.097  -5.945 -10.142  0.00  0.00     0.011 A 
BRANCH   4   7
ATOM      7  C   LIG d   1      12.390  -3.690 -11.437  0.00  0.00     0.123 C 
BRANCH   7   8
ATOM      8  C   LIG d   1      12.780  -2.212 -11.278  0.00  0.00     0.173 C 
ATOM      9  O   LIG d   1      12.069  -1.547 -10.468  0.00  0.00    -0.648 OA
ATOM     10  O   LIG d   1      13.767  -1.836 -11.970  0.00  0.00    -0.648 OA
ENDBRANCH   7   8
ENDBRANCH   4   7
ENDBRANCH   3   4
ENDBRANCH   2   3
ENDBRANCH   1   2
BRANCH   1  11
ATOM     11  C   LIG d   1      14.736  -1.298  -6.669  0.00  0.00    -0.043 A 
ATOM     12  C   LIG d   1      15.593  -0.185  -6.614  0.00  0.00     0.019 A 
ATOM     13  C   LIG d   1      15.329   0.904  -5.771  0.00  0.00    -0.036 A 
ATOM     14  C   LIG d   1      14.169   0.888  -4.991  0.00  0.00     0.011 A 
ATOM     15  C   LIG d   1      13.293  -0.198  -5.054  0.00  0.00     0.001 A 
ATOM     16  C   LIG d   1      13.578  -1.286  -5.880  0.00  0.00     0.008 A 
BRANCH  13  17
ATOM     17  C   LIG d   1      16.347   1.958  -5.661  0.00  0.00     0.014 C 
ATOM     18  C   LIG d   1      17.586   1.893  -6.177  0.00  0.00     0.032 C 
BRANCH  18  19
ATOM     19  C   LIG d   1      18.580   2.972  -6.101  0.00  0.00     0.057 A 
ATOM     20  N   LIG d   1      18.212   4.016  -5.319  0.00  0.00    -0.248 NA
ATOM     21  C   LIG d   1      19.064   5.045  -5.173  0.00  0.00     0.069 A 
ATOM     22  C   LIG d   1      20.318   5.088  -5.818  0.00  0.00    -0.007 A 
ATOM     23  C   LIG d   1      18.708   6.107  -4.356  0.00  0.00     0.056 A 
ATOM     24  C   LIG d   1      20.663   4.016  -6.644  0.00  0.00     0.016 A 
ATOM     25  C   LIG d   1      21.181   6.180  -5.630  0.00  0.00     0.015 A 
ATOM     26  C   LIG d   1      19.784   2.949  -6.793  0.00  0.00     0.032 A 
ATOM     27  C   LIG d   1      20.802   7.234  -4.802  0.00  0.00     0.025 A 
ATOM     28  C   LIG d   1      19.565   7.192  -4.169  0.00  0.00     0.036 A 
ATOM     29 CL   LIG d   1      19.088   8.492  -3.146  0.00  0.00    -0.084 Cl
ENDBRANCH  18  19
ENDBRANCH  13  17
ENDBRANCH   1  11
BRANCH   1  30
ATOM     30  C   LIG d   1      16.197  -3.351  -7.018  0.00  0.00     0.025 C 
BRANCH  30  31
ATOM     31  C   LIG d   1      15.795  -4.120  -5.746  0.00  0.00     0.040 C 
BRANCH  31  32
ATOM     32  C   LIG d   1      16.880  -5.062  -5.257  0.00  0.00    -0.049 A 
ATOM     33  C   LIG d   1      17.796  -4.793  -4.207  0.00  0.00    -0.019 A 
ATOM     34  C   LIG d   1      18.676  -5.843  -3.837  0.00  0.00     0.011 A 
ATOM     35  C   LIG d   1      18.698  -7.075  -4.495  0.00  0.00     0.001 A 
ATOM     36  C   LIG d   1      17.832  -7.306  -5.549  0.00  0.00     0.001 A 
ATOM     37  C   LIG d   1      16.934  -6.313  -5.920  0.00  0.00     0.007 A 
BRANCH  33  38
ATOM     38  C   LIG d   1      17.900  -3.458  -3.446  0.00  0.00     0.078 C 
ATOM     39  C   LIG d   1      16.557  -2.993  -2.857  0.00  0.00     0.051 C 
ATOM     40  C   LIG d   1      19.014  -3.466  -2.395  0.00  0.00     0.051 C 
BRANCH  38  41
ATOM     41  O   LIG d   1      18.278  -2.396  -4.353  0.00  0.00    -0.386 OA
ATOM     42  H   LIG d   1      17.651  -2.429  -5.097  0.00  0.00     0.211 HD
ENDBRANCH  38  41
ENDBRANCH  33  38
ENDBRANCH  31  32
ENDBRANCH  30  31
ENDBRANCH   1  30
TORSDOF 13
ENDMDL
MODEL 4
REMARK VINA RESULT:      -8.2      2.646      4.126
REMARK  13 active torsions:
REMARK  status: ('A' for Active; 'I' for Inactive)
REMARK    1  A    between atoms: S_2  and  C_10 
REMARK    2  A    between atoms: S_2  and  C_13 
REMARK    3  A    between atoms: O_5  and  C_23 
REMARK    4  A    between atoms: C_7  and  C_10 
REMARK    5  A    between atoms: C_7  and  C_11 
REMARK    6  A    between atoms: C_11  and  C_12 
REMARK    7  A    between atoms: C_13  and  C_15 
REMARK    8  A    between atoms: C_13  and  C_14 
REMARK    9  A    between atoms: C_14  and  C_16 
REMARK   10  A    between atoms: C_16  and  C_19 
REMARK   11  A    between atoms: C_20  and  C_23 
REMARK   12  A    between atoms: C_21  and  C_28 
REMARK   13  A    between atoms: C_32  and  C_33 
ROOT
ATOM      1  C   LIG d   1      14.862  -3.175  -8.415  0.00  0.00     0.080 C 
ENDROOT
BRANCH   1   2
ATOM      2  S   LIG d   1      15.021  -3.815  -6.698  0.00  0.00    -0.159 SA
BRANCH   2   3
ATOM      3  C   LIG d   1      14.153  -2.475  -5.817  0.00  0.00     0.084 C 
BRANCH   3   4
ATOM      4  C   LIG d   1      15.155  -1.592  -5.099  0.00  0.00    -0.022 A 
ATOM      5  C   LIG d   1      16.486  -2.213  -4.711  0.00  0.00     0.011 A 
ATOM      6  C   LIG d   1      15.482  -1.901  -3.645  0.00  0.00     0.011 A 
BRANCH   4   7
ATOM      7  C   LIG d   1      15.190  -0.134  -5.552  0.00  0.00     0.123 C 
BRANCH   7   8
ATOM      8  C   LIG d   1      13.812   0.547  -5.532  0.00  0.00     0.173 C 
ATOM      9  O   LIG d   1      13.231   0.630  -6.654  0.00  0.00    -0.648 OA
ATOM     10  O   LIG d   1      13.419   0.938  -4.397  0.00  0.00    -0.648 OA
ENDBRANCH   7   8
ENDBRANCH   4   7
ENDBRANCH   3   4
ENDBRANCH   2   3
ENDBRANCH   1   2
BRANCH   1  11
ATOM     11  C   LIG d   1      16.190  -2.654  -8.951  0.00  0.00    -0.043 A 
ATOM     12  C   LIG d   1      17.024  -1.826  -8.178  0.00  0.00     0.019 A 
ATOM     13  C   LIG d   1      18.233  -1.326  -8.682  0.00  0.00    -0.036 A 
ATOM     14  C   LIG d   1      18.626  -1.687  -9.973  0.00  0.00     0.011 A 
ATOM     15  C   LIG d   1      17.823  -2.529 -10.745  0.00  0.00     0.001 A 
ATOM     16  C   LIG d   1      16.611  -3.003 -10.241  0.00  0.00     0.008 A 
BRANCH  13  17
ATOM     17  C   LIG d   1      18.972  -0.351  -7.868  0.00  0.00     0.014 C 
ATOM     18  C   LIG d   1      18.421   0.683  -7.210  0.00  0.00     0.032 C 
BRANCH  18  19
ATOM     19  C   LIG d   1      19.164   1.624  -6.361  0.00  0.00     0.057 A 
ATOM     20  N   LIG d   1      18.500   2.773  -6.087  0.00  0.00    -0.248 NA
ATOM     21  C   LIG d   1      19.090   3.689  -5.302  0.00  0.00     0.069 A 
ATOM     22  C   LIG d   1      20.383   3.508  -4.767  0.00  0.00    -0.007 A 
ATOM     23  C   LIG d   1      18.410   4.858  -4.996  0.00  0.00     0.056 A 
ATOM     24  C   LIG d   1      21.062   2.329  -5.086  0.00  0.00     0.016 A 
ATOM     25  C   LIG d   1      20.959   4.489  -3.943  0.00  0.00     0.015 A 
ATOM     26  C   LIG d   1      20.449   1.379  -5.896  0.00  0.00     0.032 A 
ATOM     27  C   LIG d   1      20.255   5.653  -3.647  0.00  0.00     0.025 A 
ATOM     28  C   LIG d   1      18.982   5.832  -4.178  0.00  0.00     0.036 A 
ATOM     29 CL   LIG d   1      18.106   7.270  -3.820  0.00  0.00    -0.084 Cl
ENDBRANCH  18  19
ENDBRANCH  13  17
ENDBRANCH   1  11
BRANCH   1  30
ATOM     30  C   LIG d   1      14.275  -4.291  -9.304  0.00  0.00     0.025 C 
BRANCH  30  31
ATOM     31  C   LIG d   1      12.815  -4.002  -9.699  0.00  0.00     0.040 C 
BRANCH  31  32
ATOM     32  C   LIG d   1      12.496  -4.415 -11.125  0.00  0.00    -0.049 A 
ATOM     33  C   LIG d   1      12.368  -3.534 -12.230  0.00  0.00    -0.019 A 
ATOM     34  C   LIG d   1      12.159  -4.127 -13.502  0.00  0.00     0.011 A 
ATOM     35  C   LIG d   1      12.027  -5.506 -13.679  0.00  0.00     0.001 A 
ATOM     36  C   LIG d   1      12.106  -6.349 -12.585  0.00  0.00     0.001 A 
ATOM     37  C   LIG d   1      12.341  -5.808 -11.327  0.00  0.00     0.007 A 
BRANCH  33  38
ATOM     38  C   LIG d   1      12.442  -1.997 -12.149  0.00  0.00     0.078 C 
ATOM     39  C   LIG d   1      13.874  -1.472 -11.958  0.00  0.00     0.051 C 
ATOM     40  C   LIG d   1      11.731  -1.312 -13.320  0.00  0.00     0.051 C 
BRANCH  38  41
ATOM     41  O   LIG d   1      11.731  -1.526 -10.980  0.00  0.00    -0.386 OA
ATOM     42  H   LIG d   1      12.292  -0.846 -10.568  0.00  0.00     0.211 HD
ENDBRANCH  38  41
ENDBRANCH  33  38
ENDBRANCH  31  32
ENDBRANCH  30  31
ENDBRANCH   1  30
TORSDOF 13
ENDMDL
MODEL 5
REMARK VINA RESULT:      -8.0      5.731     12.193
REMARK  13 active torsions:
REMARK  status: ('A' for Active; 'I' for Inactive)
REMARK    1  A    between atoms: S_2  and  C_10 
REMARK    2  A    between atoms: S_2  and  C_13 
REMARK    3  A    between atoms: O_5  and  C_23 
REMARK    4  A    between atoms: C_7  and  C_10 
REMARK    5  A    between atoms: C_7  and  C_11 
REMARK    6  A    between atoms: C_11  and  C_12 
REMARK    7  A    between atoms: C_13  and  C_15 
REMARK    8  A    between atoms: C_13  and  C_14 
REMARK    9  A    between atoms: C_14  and  C_16 
REMARK   10  A    between atoms: C_16  and  C_19 
REMARK   11  A    between atoms: C_20  and  C_23 
REMARK   12  A    between atoms: C_21  and  C_28 
REMARK   13  A    between atoms: C_32  and  C_33 
ROOT
ATOM      1  C   LIG d   1      20.114   6.693  -3.880  0.00  0.00     0.080 C 
ENDROOT
BRANCH   1   2
ATOM      2  S   LIG d   1      19.965   8.523  -3.760  0.00  0.00    -0.159 SA
BRANCH   2   3
ATOM      3  C   LIG d   1      19.234   8.636  -2.094  0.00  0.00     0.084 C 
BRANCH   3   4
ATOM      4  C   LIG d   1      19.938   9.712  -1.291  0.00  0.00    -0.022 A 
ATOM      5  C   LIG d   1      19.620   9.804   0.192  0.00  0.00     0.011 A 
ATOM      6  C   LIG d   1      19.110  10.862  -0.736  0.00  0.00     0.011 A 
BRANCH   4   7
ATOM      7  C   LIG d   1      21.384   9.994  -1.695  0.00  0.00     0.123 C 
BRANCH   7   8
ATOM      8  C   LIG d   1      22.418   9.292  -0.799  0.00  0.00     0.173 C 
ATOM      9  O   LIG d   1      22.506   8.038  -0.952  0.00  0.00    -0.648 OA
ATOM     10  O   LIG d   1      23.060  10.050  -0.020  0.00  0.00    -0.648 OA
ENDBRANCH   7   8
ENDBRANCH   4   7
ENDBRANCH   3   4
ENDBRANCH   2   3
ENDBRANCH   1   2
BRANCH   1  11
ATOM     11  C   LIG d   1      19.369   6.143  -5.090  0.00  0.00    -0.043 A 
ATOM     12  C   LIG d   1      18.705   4.904  -5.047  0.00  0.00     0.019 A 
ATOM     13  C   LIG d   1      18.042   4.386  -6.169  0.00  0.00    -0.036 A 
ATOM     14  C   LIG d   1      18.021   5.139  -7.346  0.00  0.00     0.011 A 
ATOM     15  C   LIG d   1      18.654   6.382  -7.399  0.00  0.00     0.001 A 
ATOM     16  C   LIG d   1      19.329   6.877  -6.283  0.00  0.00     0.008 A 
BRANCH  13  17
ATOM     17  C   LIG d   1      17.501   3.022  -6.086  0.00  0.00     0.014 C 
ATOM     18  C   LIG d   1      16.402   2.667  -5.399  0.00  0.00     0.032 C 
BRANCH  18  19
ATOM     19  C   LIG d   1      15.844   1.309  -5.362  0.00  0.00     0.057 A 
ATOM     20  N   LIG d   1      16.401   0.451  -6.252  0.00  0.00    -0.248 NA
ATOM     21  C   LIG d   1      15.969  -0.821  -6.281  0.00  0.00     0.069 A 
ATOM     22  C   LIG d   1      14.944  -1.292  -5.434  0.00  0.00    -0.007 A 
ATOM     23  C   LIG d   1      16.549  -1.712  -7.170  0.00  0.00     0.056 A 
ATOM     24  C   LIG d   1      14.362  -0.384  -4.546  0.00  0.00     0.016 A 
ATOM     25  C   LIG d   1      14.529  -2.633  -5.492  0.00  0.00     0.015 A 
ATOM     26  C   LIG d   1      14.812   0.932  -4.513  0.00  0.00     0.032 A 
ATOM     27  C   LIG d   1      15.129  -3.510  -6.392  0.00  0.00     0.025 A 
ATOM     28  C   LIG d   1      16.137  -3.044  -7.228  0.00  0.00     0.036 A 
ATOM     29 CL   LIG d   1      16.881  -4.121  -8.345  0.00  0.00    -0.084 Cl
ENDBRANCH  18  19
ENDBRANCH  13  17
ENDBRANCH   1  11
BRANCH   1  30
ATOM     30  C   LIG d   1      21.611   6.321  -3.901  0.00  0.00     0.025 C 
BRANCH  30  31
ATOM     31  C   LIG d   1      21.866   4.933  -3.286  0.00  0.00     0.040 C 
BRANCH  31  32
ATOM     32  C   LIG d   1      23.221   4.361  -3.660  0.00  0.00    -0.049 A 
ATOM     33  C   LIG d   1      23.467   3.440  -4.713  0.00  0.00    -0.019 A 
ATOM     34  C   LIG d   1      24.821   3.097  -4.962  0.00  0.00     0.011 A 
ATOM     35  C   LIG d   1      25.878   3.585  -4.191  0.00  0.00     0.001 A 
ATOM     36  C   LIG d   1      25.619   4.445  -3.138  0.00  0.00     0.001 A 
ATOM     37  C   LIG d   1      24.308   4.829  -2.881  0.00  0.00     0.007 A 
BRANCH  33  38
ATOM     38  C   LIG d   1      22.381   2.796  -5.594  0.00  0.00     0.078 C 
ATOM     39  C   LIG d   1      21.261   2.127  -4.780  0.00  0.00     0.051 C 
ATOM     40  C   LIG d   1      21.826   3.763  -6.644  0.00  0.00     0.051 C 
BRANCH  38  41
ATOM     41  O   LIG d   1      22.948   1.716  -6.374  0.00  0.00    -0.386 OA
ATOM     42  H   LIG d   1      22.501   1.731  -7.237  0.00  0.00     0.211 HD
ENDBRANCH  38  41
ENDBRANCH  33  38
ENDBRANCH  31  32
ENDBRANCH  30  31
ENDBRANCH   1  30
TORSDOF 13
ENDMDL
MODEL 6
REMARK VINA RESULT:      -8.0      1.768      2.583
REMARK  13 active torsions:
REMARK  status: ('A' for Active; 'I' for Inactive)
REMARK    1  A    between atoms: S_2  and  C_10 
REMARK    2  A    between atoms: S_2  and  C_13 
REMARK    3  A    between atoms: O_5  and  C_23 
REMARK    4  A    between atoms: C_7  and  C_10 
REMARK    5  A    between atoms: C_7  and  C_11 
REMARK    6  A    between atoms: C_11  and  C_12 
REMARK    7  A    between atoms: C_13  and  C_15 
REMARK    8  A    between atoms: C_13  and  C_14 
REMARK    9  A    between atoms: C_14  and  C_16 
REMARK   10  A    between atoms: C_16  and  C_19 
REMARK   11  A    between atoms: C_20  and  C_23 
REMARK   12  A    between atoms: C_21  and  C_28 
REMARK   13  A    between atoms: C_32  and  C_33 
ROOT
ATOM      1  C   LIG d   1      15.063  -1.303  -7.131  0.00  0.00     0.080 C 
ENDROOT
BRANCH   1   2
ATOM      2  S   LIG d   1      15.036  -3.002  -6.426  0.00  0.00    -0.159 SA
BRANCH   2   3
ATOM      3  C   LIG d   1      15.406  -2.591  -4.689  0.00  0.00     0.084 C 
BRANCH   3   4
ATOM      4  C   LIG d   1      16.579  -3.418  -4.199  0.00  0.00    -0.022 A 
ATOM      5  C   LIG d   1      16.330  -4.889  -3.913  0.00  0.00     0.011 A 
ATOM      6  C   LIG d   1      16.548  -3.945  -2.771  0.00  0.00     0.011 A 
BRANCH   4   7
ATOM      7  C   LIG d   1      17.934  -3.062  -4.808  0.00  0.00     0.123 C 
BRANCH   7   8
ATOM      8  C   LIG d   1      18.598  -4.234  -5.548  0.00  0.00     0.173 C 
ATOM      9  O   LIG d   1      18.204  -4.418  -6.737  0.00  0.00    -0.648 OA
ATOM     10  O   LIG d   1      19.463  -4.872  -4.885  0.00  0.00    -0.648 OA
ENDBRANCH   7   8
ENDBRANCH   4   7
ENDBRANCH   3   4
ENDBRANCH   2   3
ENDBRANCH   1   2
BRANCH   1  11
ATOM     11  C   LIG d   1      16.485  -0.783  -7.300  0.00  0.00    -0.043 A 
ATOM     12  C   LIG d   1      16.964   0.311  -6.556  0.00  0.00     0.019 A 
ATOM     13  C   LIG d   1      18.264   0.805  -6.731  0.00  0.00    -0.036 A 
ATOM     14  C   LIG d   1      19.109   0.173  -7.647  0.00  0.00     0.011 A 
ATOM     15  C   LIG d   1      18.658  -0.930  -8.375  0.00  0.00     0.001 A 
ATOM     16  C   LIG d   1      17.355  -1.400  -8.209  0.00  0.00     0.008 A 
BRANCH  13  17
ATOM     17  C   LIG d   1      18.637   2.039  -6.025  0.00  0.00     0.014 C 
ATOM     18  C   LIG d   1      18.058   3.238  -6.205  0.00  0.00     0.032 C 
BRANCH  18  19
ATOM     19  C   LIG d   1      18.407   4.455  -5.459  0.00  0.00     0.057 A 
ATOM     20  N   LIG d   1      19.738   4.641  -5.285  0.00  0.00    -0.248 NA
ATOM     21  C   LIG d   1      20.157   5.736  -4.630  0.00  0.00     0.069 A 
ATOM     22  C   LIG d   1      19.262   6.691  -4.100  0.00  0.00    -0.007 A 
ATOM     23  C   LIG d   1      21.517   5.948  -4.467  0.00  0.00     0.056 A 
ATOM     24  C   LIG d   1      17.894   6.464  -4.265  0.00  0.00     0.016 A 
ATOM     25  C   LIG d   1      19.745   7.826  -3.430  0.00  0.00     0.015 A 
ATOM     26  C   LIG d   1      17.460   5.331  -4.946  0.00  0.00     0.032 A 
ATOM     27  C   LIG d   1      21.116   8.019  -3.281  0.00  0.00     0.025 A 
ATOM     28  C   LIG d   1      21.996   7.077  -3.801  0.00  0.00     0.036 A 
ATOM     29 CL   LIG d   1      23.693   7.306  -3.619  0.00  0.00    -0.084 Cl
ENDBRANCH  18  19
ENDBRANCH  13  17
ENDBRANCH   1  11
BRANCH   1  30
ATOM     30  C   LIG d   1      14.286  -1.310  -8.464  0.00  0.00     0.025 C 
BRANCH  30  31
ATOM     31  C   LIG d   1      14.038  -2.741  -8.977  0.00  0.00     0.040 C 
BRANCH  31  32
ATOM     32  C   LIG d   1      13.182  -2.779 -10.230  0.00  0.00    -0.049 A 
ATOM     33  C   LIG d   1      12.213  -3.769 -10.538  0.00  0.00    -0.019 A 
ATOM     34  C   LIG d   1      11.449  -3.574 -11.717  0.00  0.00     0.011 A 
ATOM     35  C   LIG d   1      11.656  -2.497 -12.581  0.00  0.00     0.001 A 
ATOM     36  C   LIG d   1      12.637  -1.564 -12.293  0.00  0.00     0.001 A 
ATOM     37  C   LIG d   1      13.386  -1.704 -11.131  0.00  0.00     0.007 A 
BRANCH  33  38
ATOM     38  C   LIG d   1      11.933  -5.024  -9.691  0.00  0.00     0.078 C 
ATOM     39  C   LIG d   1      11.335  -6.182 -10.508  0.00  0.00     0.051 C 
ATOM     40  C   LIG d   1      13.152  -5.467  -8.876  0.00  0.00     0.051 C 
BRANCH  38  41
ATOM     41  O   LIG d   1      10.925  -4.737  -8.692  0.00  0.00    -0.386 OA
ATOM     42  H   LIG d   1      10.081  -4.644  -9.168  0.00  0.00     0.211 HD
ENDBRANCH  38  41
ENDBRANCH  33  38
ENDBRANCH  31  32
ENDBRANCH  30  31
ENDBRANCH   1  30
TORSDOF 13
ENDMDL
MODEL 7
REMARK VINA RESULT:      -7.9      1.650      5.816
REMARK  13 active torsions:
REMARK  status: ('A' for Active; 'I' for Inactive)
REMARK    1  A    between atoms: S_2  and  C_10 
REMARK    2  A    between atoms: S_2  and  C_13 
REMARK    3  A    between atoms: O_5  and  C_23 
REMARK    4  A    between atoms: C_7  and  C_10 
REMARK    5  A    between atoms: C_7  and  C_11 
REMARK    6  A    between atoms: C_11  and  C_12 
REMARK    7  A    between atoms: C_13  and  C_15 
REMARK    8  A    between atoms: C_13  and  C_14 
REMARK    9  A    between atoms: C_14  and  C_16 
REMARK   10  A    between atoms: C_16  and  C_19 
REMARK   11  A    between atoms: C_20  and  C_23 
REMARK   12  A    between atoms: C_21  and  C_28 
REMARK   13  A    between atoms: C_32  and  C_33 
ROOT
ATOM      1  C   LIG d   1      15.220  -2.358  -7.814  0.00  0.00     0.080 C 
ENDROOT
BRANCH   1   2
ATOM      2  S   LIG d   1      13.666  -3.296  -8.114  0.00  0.00    -0.159 SA
BRANCH   2   3
ATOM      3  C   LIG d   1      13.207  -2.571  -9.723  0.00  0.00     0.084 C 
BRANCH   3   4
ATOM      4  C   LIG d   1      13.379  -3.600 -10.823  0.00  0.00    -0.022 A 
ATOM      5  C   LIG d   1      14.605  -4.496 -10.762  0.00  0.00     0.011 A 
ATOM      6  C   LIG d   1      14.528  -3.426 -11.806  0.00  0.00     0.011 A 
BRANCH   4   7
ATOM      7  C   LIG d   1      12.089  -4.245 -11.327  0.00  0.00     0.123 C 
BRANCH   7   8
ATOM      8  C   LIG d   1      11.914  -5.702 -10.869  0.00  0.00     0.173 C 
ATOM      9  O   LIG d   1      12.036  -6.575 -11.777  0.00  0.00    -0.648 OA
ATOM     10  O   LIG d   1      11.674  -5.856  -9.639  0.00  0.00    -0.648 OA
ENDBRANCH   7   8
ENDBRANCH   4   7
ENDBRANCH   3   4
ENDBRANCH   2   3
ENDBRANCH   1   2
BRANCH   1  11
ATOM     11  C   LIG d   1      15.001  -1.190  -6.860  0.00  0.00    -0.043 A 
ATOM     12  C   LIG d   1      15.899  -0.109  -6.798  0.00  0.00     0.019 A 
ATOM     13  C   LIG d   1      15.710   0.952  -5.901  0.00  0.00    -0.036 A 
ATOM     14  C   LIG d   1      14.585   0.942  -5.072  0.00  0.00     0.011 A 
ATOM     15  C   LIG d   1      13.670  -0.110  -5.138  0.00  0.00     0.001 A 
ATOM     16  C   LIG d   1      13.880  -1.172  -6.020  0.00  0.00     0.008 A 
BRANCH  13  17
ATOM     17  C   LIG d   1      16.769   1.965  -5.794  0.00  0.00     0.014 C 
ATOM     18  C   LIG d   1      16.769   3.153  -6.423  0.00  0.00     0.032 C 
BRANCH  18  19
ATOM     19  C   LIG d   1      17.810   4.178  -6.271  0.00  0.00     0.057 A 
ATOM     20  N   LIG d   1      18.839   3.814  -5.468  0.00  0.00    -0.248 NA
ATOM     21  C   LIG d   1      19.851   4.679  -5.282  0.00  0.00     0.069 A 
ATOM     22  C   LIG d   1      19.872   5.958  -5.877  0.00  0.00    -0.007 A 
ATOM     23  C   LIG d   1      20.920   4.308  -4.480  0.00  0.00     0.056 A 
ATOM     24  C   LIG d   1      18.787   6.324  -6.676  0.00  0.00     0.016 A 
ATOM     25  C   LIG d   1      20.955   6.827  -5.662  0.00  0.00     0.015 A 
ATOM     26  C   LIG d   1      17.742   5.427  -6.872  0.00  0.00     0.032 A 
ATOM     27  C   LIG d   1      22.019   6.431  -4.855  0.00  0.00     0.025 A 
ATOM     28  C   LIG d   1      21.995   5.171  -4.267  0.00  0.00     0.036 A 
ATOM     29 CL   LIG d   1      23.305   4.674  -3.267  0.00  0.00    -0.084 Cl
ENDBRANCH  18  19
ENDBRANCH  13  17
ENDBRANCH   1  11
BRANCH   1  30
ATOM     30  C   LIG d   1      16.295  -3.336  -7.297  0.00  0.00     0.025 C 
BRANCH  30  31
ATOM     31  C   LIG d   1      15.712  -4.357  -6.302  0.00  0.00     0.040 C 
BRANCH  31  32
ATOM     32  C   LIG d   1      16.384  -4.306  -4.942  0.00  0.00    -0.049 A 
ATOM     33  C   LIG d   1      17.318  -5.253  -4.447  0.00  0.00    -0.019 A 
ATOM     34  C   LIG d   1      17.906  -4.976  -3.186  0.00  0.00     0.011 A 
ATOM     35  C   LIG d   1      17.559  -3.860  -2.421  0.00  0.00     0.001 A 
ATOM     36  C   LIG d   1      16.611  -2.970  -2.895  0.00  0.00     0.001 A 
ATOM     37  C   LIG d   1      16.036  -3.190  -4.141  0.00  0.00     0.007 A 
BRANCH  33  38
ATOM     38  C   LIG d   1      17.737  -6.544  -5.175  0.00  0.00     0.078 C 
ATOM     39  C   LIG d   1      18.125  -6.310  -6.644  0.00  0.00     0.051 C 
ATOM     40  C   LIG d   1      18.816  -7.323  -4.415  0.00  0.00     0.051 C 
BRANCH  38  41
ATOM     41  O   LIG d   1      16.620  -7.462  -5.243  0.00  0.00    -0.386 OA
ATOM     42  H   LIG d   1      16.619  -7.832  -6.143  0.00  0.00     0.211 HD
ENDBRANCH  38  41
ENDBRANCH  33  38
ENDBRANCH  31  32
ENDBRANCH  30  31
ENDBRANCH   1  30
TORSDOF 13
ENDMDL
MODEL 8
REMARK VINA RESULT:      -7.8     28.425     31.229
REMARK  13 active torsions:
REMARK  status: ('A' for Active; 'I' for Inactive)
REMARK    1  A    between atoms: S_2  and  C_10 
REMARK    2  A    between atoms: S_2  and  C_13 
REMARK    3  A    between atoms: O_5  and  C_23 
REMARK    4  A    between atoms: C_7  and  C_10 
REMARK    5  A    between atoms: C_7  and  C_11 
REMARK    6  A    between atoms: C_11  and  C_12 
REMARK    7  A    between atoms: C_13  and  C_15 
REMARK    8  A    between atoms: C_13  and  C_14 
REMARK    9  A    between atoms: C_14  and  C_16 
REMARK   10  A    between atoms: C_16  and  C_19 
REMARK   11  A    between atoms: C_20  and  C_23 
REMARK   12  A    between atoms: C_21  and  C_28 
REMARK   13  A    between atoms: C_32  and  C_33 
ROOT
ATOM      1  C   LIG d   1      10.102  -2.156  22.864  0.00  0.00     0.080 C 
ENDROOT
BRANCH   1   2
ATOM      2  S   LIG d   1       8.583  -1.655  21.955  0.00  0.00    -0.159 SA
BRANCH   2   3
ATOM      3  C   LIG d   1       9.146  -2.001  20.255  0.00  0.00     0.084 C 
BRANCH   3   4
ATOM      4  C   LIG d   1       7.959  -2.340  19.375  0.00  0.00    -0.022 A 
ATOM      5  C   LIG d   1       7.507  -3.790  19.332  0.00  0.00     0.011 A 
ATOM      6  C   LIG d   1       8.193  -3.198  18.140  0.00  0.00     0.011 A 
BRANCH   4   7
ATOM      7  C   LIG d   1       6.858  -1.282  19.320  0.00  0.00     0.123 C 
BRANCH   7   8
ATOM      8  C   LIG d   1       7.220  -0.067  18.450  0.00  0.00     0.173 C 
ATOM      9  O   LIG d   1       7.957   0.799  19.006  0.00  0.00    -0.648 OA
ATOM     10  O   LIG d   1       6.743  -0.079  17.281  0.00  0.00    -0.648 OA
ENDBRANCH   7   8
ENDBRANCH   4   7
ENDBRANCH   3   4
ENDBRANCH   2   3
ENDBRANCH   1   2
BRANCH   1  11
ATOM     11  C   LIG d   1      11.122  -1.026  22.929  0.00  0.00    -0.043 A 
ATOM     12  C   LIG d   1      10.740   0.298  23.211  0.00  0.00     0.019 A 
ATOM     13  C   LIG d   1      11.676   1.341  23.245  0.00  0.00    -0.036 A 
ATOM     14  C   LIG d   1      13.024   1.045  23.022  0.00  0.00     0.011 A 
ATOM     15  C   LIG d   1      13.424  -0.268  22.766  0.00  0.00     0.001 A 
ATOM     16  C   LIG d   1      12.480  -1.295  22.713  0.00  0.00     0.008 A 
BRANCH  13  17
ATOM     17  C   LIG d   1      11.177   2.715  23.399  0.00  0.00     0.014 C 
ATOM     18  C   LIG d   1       9.892   3.053  23.598  0.00  0.00     0.032 C 
BRANCH  18  19
ATOM     19  C   LIG d   1       9.412   4.427  23.798  0.00  0.00     0.057 A 
ATOM     20  N   LIG d   1       8.853   4.989  22.698  0.00  0.00    -0.248 NA
ATOM     21  C   LIG d   1       8.367   6.238  22.787  0.00  0.00     0.069 A 
ATOM     22  C   LIG d   1       8.433   6.994  23.977  0.00  0.00    -0.007 A 
ATOM     23  C   LIG d   1       7.772   6.814  21.675  0.00  0.00     0.056 A 
ATOM     24  C   LIG d   1       9.041   6.406  25.090  0.00  0.00     0.016 A 
ATOM     25  C   LIG d   1       7.904   8.294  24.028  0.00  0.00     0.015 A 
ATOM     26  C   LIG d   1       9.540   5.112  24.999  0.00  0.00     0.032 A 
ATOM     27  C   LIG d   1       7.308   8.850  22.898  0.00  0.00     0.025 A 
ATOM     28  C   LIG d   1       7.246   8.105  21.725  0.00  0.00     0.036 A 
ATOM     29 CL   LIG d   1       6.514   8.785  20.324  0.00  0.00    -0.084 Cl
ENDBRANCH  18  19
ENDBRANCH  13  17
ENDBRANCH   1  11
BRANCH   1  30
ATOM     30  C   LIG d   1       9.695  -2.654  24.266  0.00  0.00     0.025 C 
BRANCH  30  31
ATOM     31  C   LIG d   1       9.810  -4.185  24.388  0.00  0.00     0.040 C 
BRANCH  31  32
ATOM     32  C   LIG d   1       8.500  -4.899  24.108  0.00  0.00    -0.049 A 
ATOM     33  C   LIG d   1       7.480  -5.157  25.060  0.00  0.00    -0.019 A 
ATOM     34  C   LIG d   1       6.288  -5.756  24.577  0.00  0.00     0.011 A 
ATOM     35  C   LIG d   1       6.121  -6.134  23.243  0.00  0.00     0.001 A 
ATOM     36  C   LIG d   1       7.142  -5.920  22.335  0.00  0.00     0.001 A 
ATOM     37  C   LIG d   1       8.314  -5.307  22.764  0.00  0.00     0.007 A 
BRANCH  33  38
ATOM     38  C   LIG d   1       7.573  -4.835  26.564  0.00  0.00     0.078 C 
ATOM     39  C   LIG d   1       6.376  -5.368  27.369  0.00  0.00     0.051 C 
ATOM     40  C   LIG d   1       8.911  -5.261  27.175  0.00  0.00     0.051 C 
BRANCH  38  41
ATOM     41  O   LIG d   1       7.530  -3.402  26.768  0.00  0.00    -0.386 OA
ATOM     42  H   LIG d   1       8.368  -3.047  26.424  0.00  0.00     0.211 HD
ENDBRANCH  38  41
ENDBRANCH  33  38
ENDBRANCH  31  32
ENDBRANCH  30  31
ENDBRANCH   1  30
TORSDOF 13
ENDMDL
MODEL 9
REMARK VINA RESULT:      -7.8      2.223      3.475
REMARK  13 active torsions:
REMARK  status: ('A' for Active; 'I' for Inactive)
REMARK    1  A    between atoms: S_2  and  C_10 
REMARK    2  A    between atoms: S_2  and  C_13 
REMARK    3  A    between atoms: O_5  and  C_23 
REMARK    4  A    between atoms: C_7  and  C_10 
REMARK    5  A    between atoms: C_7  and  C_11 
REMARK    6  A    between atoms: C_11  and  C_12 
REMARK    7  A    between atoms: C_13  and  C_15 
REMARK    8  A    between atoms: C_13  and  C_14 
REMARK    9  A    between atoms: C_14  and  C_16 
REMARK   10  A    between atoms: C_16  and  C_19 
REMARK   11  A    between atoms: C_20  and  C_23 
REMARK   12  A    between atoms: C_21  and  C_28 
REMARK   13  A    between atoms: C_32  and  C_33 
ROOT
ATOM      1  C   LIG d   1      17.459  -1.712  -7.426  0.00  0.00     0.080 C 
ENDROOT
BRANCH   1   2
ATOM      2  S   LIG d   1      18.116  -3.429  -7.360  0.00  0.00    -0.159 SA
BRANCH   2   3
ATOM      3  C   LIG d   1      18.461  -3.530  -5.573  0.00  0.00     0.084 C 
BRANCH   3   4
ATOM      4  C   LIG d   1      17.451  -4.437  -4.900  0.00  0.00    -0.022 A 
ATOM      5  C   LIG d   1      17.949  -5.335  -3.780  0.00  0.00     0.011 A 
ATOM      6  C   LIG d   1      17.581  -5.941  -5.099  0.00  0.00     0.011 A 
BRANCH   4   7
ATOM      7  C   LIG d   1      16.050  -3.851  -4.730  0.00  0.00     0.123 C 
BRANCH   7   8
ATOM      8  C   LIG d   1      16.014  -2.607  -3.828  0.00  0.00     0.173 C 
ATOM      9  O   LIG d   1      15.850  -1.505  -4.429  0.00  0.00    -0.648 OA
ATOM     10  O   LIG d   1      16.146  -2.832  -2.592  0.00  0.00    -0.648 OA
ENDBRANCH   7   8
ENDBRANCH   4   7
ENDBRANCH   3   4
ENDBRANCH   2   3
ENDBRANCH   1   2
BRANCH   1  11
ATOM     11  C   LIG d   1      18.577  -0.682  -7.542  0.00  0.00    -0.043 A 
ATOM     12  C   LIG d   1      18.655   0.424  -6.677  0.00  0.00     0.019 A 
ATOM     13  C   LIG d   1      19.668   1.384  -6.802  0.00  0.00    -0.036 A 
ATOM     14  C   LIG d   1      20.638   1.216  -7.794  0.00  0.00     0.011 A 
ATOM     15  C   LIG d   1      20.591   0.110  -8.645  0.00  0.00     0.001 A 
ATOM     16  C   LIG d   1      19.564  -0.828  -8.525  0.00  0.00     0.008 A 
BRANCH  13  17
ATOM     17  C   LIG d   1      19.593   2.585  -5.957  0.00  0.00     0.014 C 
ATOM     18  C   LIG d   1      19.115   3.777  -6.348  0.00  0.00     0.032 C 
BRANCH  18  19
ATOM     19  C   LIG d   1      19.001   4.957  -5.480  0.00  0.00     0.057 A 
ATOM     20  N   LIG d   1      20.187   5.452  -5.051  0.00  0.00    -0.248 NA
ATOM     21  C   LIG d   1      20.187   6.542  -4.266  0.00  0.00     0.069 A 
ATOM     22  C   LIG d   1      18.997   7.180  -3.857  0.00  0.00    -0.007 A 
ATOM     23  C   LIG d   1      21.397   7.070  -3.841  0.00  0.00     0.056 A 
ATOM     24  C   LIG d   1      17.784   6.635  -4.285  0.00  0.00     0.016 A 
ATOM     25  C   LIG d   1      19.044   8.324  -3.042  0.00  0.00     0.015 A 
ATOM     26  C   LIG d   1      17.785   5.509  -5.101  0.00  0.00     0.032 A 
ATOM     27  C   LIG d   1      20.271   8.838  -2.631  0.00  0.00     0.025 A 
ATOM     28  C   LIG d   1      21.443   8.206  -3.033  0.00  0.00     0.036 A 
ATOM     29 CL   LIG d   1      22.964   8.833  -2.526  0.00  0.00    -0.084 Cl
ENDBRANCH  18  19
ENDBRANCH  13  17
ENDBRANCH   1  11
BRANCH   1  30
ATOM     30  C   LIG d   1      16.454  -1.612  -8.592  0.00  0.00     0.025 C 
BRANCH  30  31
ATOM     31  C   LIG d   1      16.001  -3.000  -9.079  0.00  0.00     0.040 C 
BRANCH  31  32
ATOM     32  C   LIG d   1      14.732  -2.949  -9.911  0.00  0.00    -0.049 A 
ATOM     33  C   LIG d   1      13.429  -3.274  -9.451  0.00  0.00    -0.019 A 
ATOM     34  C   LIG d   1      12.359  -3.071 -10.359  0.00  0.00     0.011 A 
ATOM     35  C   LIG d   1      12.554  -2.624 -11.668  0.00  0.00     0.001 A 
ATOM     36  C   LIG d   1      13.834  -2.357 -12.118  0.00  0.00     0.001 A 
ATOM     37  C   LIG d   1      14.907  -2.514 -11.248  0.00  0.00     0.007 A 
BRANCH  33  38
ATOM     38  C   LIG d   1      13.099  -3.824  -8.050  0.00  0.00     0.078 C 
ATOM     39  C   LIG d   1      13.779  -5.171  -7.755  0.00  0.00     0.051 C 
ATOM     40  C   LIG d   1      13.354  -2.798  -6.941  0.00  0.00     0.051 C 
BRANCH  38  41
ATOM     41  O   LIG d   1      11.684  -4.109  -7.949  0.00  0.00    -0.386 OA
ATOM     42  H   LIG d   1      11.607  -5.009  -7.587  0.00  0.00     0.211 HD
ENDBRANCH  38  41
ENDBRANCH  33  38
ENDBRANCH  31  32
ENDBRANCH  30  31
ENDBRANCH   1  30
TORSDOF 13
ENDMDL
