MODEL 1
REMARK minimizedAffinity -5.88567352REMARK CNNscore 0.539005399REMARK CNNaffinity 5.07941771REMARK  8 active torsions:
REMARK  status: ('A' for Active; 'I' for Inactive)
REMARK    1  A    between atoms: S_1  and  N_7 
REMARK    2  A    between atoms: S_1  and  C_11 
REMARK    3  A    between atoms: O_4  and  C_22 
REMARK    4  A    between atoms: N_7  and  C_17 
REMARK    5  A    between atoms: N_8  and  N_10 
REMARK    6  A    between atoms: N_8  and  C_14 
REMARK    7  A    between atoms: N_10  and  C_18 
REMARK    8  A    between atoms: C_20  and  C_28 
ROOT
ATOM      1  C   LIG d   1      18.392  -4.002  -2.683  0.00  0.00     0.075 A 
ATOM      2  C   LIG d   1      19.224  -3.086  -2.043  0.00  0.00     0.027 A 
ATOM      3  C   LIG d   1      18.925  -5.127  -3.312  0.00  0.00     0.027 A 
ATOM      4  C   LIG d   1      21.184  -4.393  -2.717  0.00  0.00     0.079 A 
ATOM      5  C   LIG d   1      20.607  -3.287  -2.071  0.00  0.00     0.035 A 
ATOM      6  C   LIG d   1      20.310  -5.303  -3.329  0.00  0.00     0.035 A 
ENDROOT
BRANCH   4   7
ATOM      7  N   LIG d   1      22.513  -4.632  -2.812  0.00  0.00    -0.150 NA
BRANCH   7   8
ATOM      8  N   LIG d   1      22.980  -5.896  -2.192  0.00  0.00    -0.150 NA
BRANCH   8   9
ATOM      9  C   LIG d   1      23.585  -5.770  -0.976  0.00  0.00     0.080 A 
ATOM     10  C   LIG d   1      24.246  -4.556  -0.643  0.00  0.00     0.054 A 
ATOM     11  C   LIG d   1      24.906  -4.336   0.594  0.00  0.00     0.076 A 
ATOM     12  C   LIG d   1      24.900  -5.396   1.517  0.00  0.00     0.082 A 
ATOM     13  C   LIG d   1      24.274  -6.603   1.229  0.00  0.00     0.040 A 
ATOM     14  C   LIG d   1      23.629  -6.780  -0.002  0.00  0.00     0.036 A 
BRANCH  11  15
ATOM     15  C   LIG d   1      25.595  -3.026   0.928  0.00  0.00     0.212 C 
ATOM     16  O   LIG d   1      25.300  -2.513   2.074  0.00  0.00    -0.644 OA
ATOM     17  O   LIG d   1      26.416  -2.489   0.114  0.00  0.00    -0.644 OA
ENDBRANCH  11  15
BRANCH  12  18
ATOM     18  O   LIG d   1      25.510  -5.290   2.750  0.00  0.00    -0.360 OA
ATOM     19  H   LIG d   1      25.870  -4.362   2.746  0.00  0.00     0.217 HD
ENDBRANCH  12  18
ENDBRANCH   8   9
ENDBRANCH   7   8
ENDBRANCH   4   7
BRANCH   1  20
ATOM     20  S   LIG d   1      16.645  -3.749  -2.711  0.00  0.00     0.247 S 
ATOM     21  O   LIG d   1      16.006  -4.833  -1.985  0.00  0.00    -0.205 OA
ATOM     22  O   LIG d   1      16.329  -2.376  -2.364  0.00  0.00    -0.205 OA
BRANCH  20  23
ATOM     23  N   LIG d   1      16.236  -4.006  -4.345  0.00  0.00    -0.165 NA
ATOM     24  H   LIG d   1      17.017  -4.501  -4.778  0.00  0.00     0.147 HD
BRANCH  23  25
ATOM     25  C   LIG d   1      16.051  -2.831  -5.107  0.00  0.00     0.116 C 
ATOM     26  N   LIG d   1      14.749  -2.539  -5.242  0.00  0.00    -0.248 NA
ATOM     27  C   LIG d   1      14.454  -1.508  -6.062  0.00  0.00     0.118 C 
ATOM     28  C   LIG d   1      15.412  -0.693  -6.648  0.00  0.00     0.019 C 
ATOM     29  C   LIG d   1      16.753  -0.966  -6.398  0.00  0.00     0.005 C 
ATOM     30  C   LIG d   1      17.085  -2.063  -5.611  0.00  0.00     0.045 C 
ENDBRANCH  23  25
ENDBRANCH  20  23
ENDBRANCH   1  20
TORSDOF 8
ENDMDL
MODEL 2
REMARK minimizedAffinity -6.27005625REMARK CNNscore 0.51952523REMARK CNNaffinity 4.83303976REMARK  8 active torsions:
REMARK  status: ('A' for Active; 'I' for Inactive)
REMARK    1  A    between atoms: S_1  and  N_7 
REMARK    2  A    between atoms: S_1  and  C_11 
REMARK    3  A    between atoms: O_4  and  C_22 
REMARK    4  A    between atoms: N_7  and  C_17 
REMARK    5  A    between atoms: N_8  and  N_10 
REMARK    6  A    between atoms: N_8  and  C_14 
REMARK    7  A    between atoms: N_10  and  C_18 
REMARK    8  A    between atoms: C_20  and  C_28 
ROOT
ATOM      1  C   LIG d   1      22.145 -19.935  10.252  0.00  0.00     0.075 A 
ATOM      2  C   LIG d   1      21.553 -20.624   9.196  0.00  0.00     0.027 A 
ATOM      3  C   LIG d   1      22.281 -18.548  10.208  0.00  0.00     0.027 A 
ATOM      4  C   LIG d   1      21.274 -18.518   7.976  0.00  0.00     0.079 A 
ATOM      5  C   LIG d   1      21.130 -19.911   8.070  0.00  0.00     0.035 A 
ATOM      6  C   LIG d   1      21.854 -17.860   9.071  0.00  0.00     0.035 A 
ENDROOT
BRANCH   4   7
ATOM      7  N   LIG d   1      20.918 -17.769   6.906  0.00  0.00    -0.150 NA
BRANCH   7   8
ATOM      8  N   LIG d   1      21.436 -16.379   6.898  0.00  0.00    -0.150 NA
BRANCH   8   9
ATOM      9  C   LIG d   1      21.383 -15.735   5.697  0.00  0.00     0.080 A 
ATOM     10  C   LIG d   1      22.365 -14.756   5.381  0.00  0.00     0.054 A 
ATOM     11  C   LIG d   1      22.387 -14.032   4.160  0.00  0.00     0.076 A 
ATOM     12  C   LIG d   1      21.365 -14.310   3.236  0.00  0.00     0.082 A 
ATOM     13  C   LIG d   1      20.380 -15.252   3.508  0.00  0.00     0.040 A 
ATOM     14  C   LIG d   1      20.395 -15.949   4.723  0.00  0.00     0.036 A 
BRANCH  11  15
ATOM     15  C   LIG d   1      23.454 -13.001   3.844  0.00  0.00     0.212 C 
ATOM     16  O   LIG d   1      24.658 -13.317   4.182  0.00  0.00    -0.644 OA
ATOM     17  O   LIG d   1      23.157 -11.901   3.273  0.00  0.00    -0.644 OA
ENDBRANCH  11  15
BRANCH  12  18
ATOM     18  O   LIG d   1      21.292 -13.666   2.019  0.00  0.00    -0.360 OA
ATOM     19  H   LIG d   1      22.084 -13.064   2.032  0.00  0.00     0.217 HD
ENDBRANCH  12  18
ENDBRANCH   8   9
ENDBRANCH   7   8
ENDBRANCH   4   7
BRANCH   1  20
ATOM     20  S   LIG d   1      22.738 -20.812  11.665  0.00  0.00     0.247 S 
ATOM     21  O   LIG d   1      23.483 -21.975  11.213  0.00  0.00    -0.205 OA
ATOM     22  O   LIG d   1      23.353 -19.894  12.605  0.00  0.00    -0.205 OA
BRANCH  20  23
ATOM     23  N   LIG d   1      21.316 -21.438  12.365  0.00  0.00    -0.165 NA
ATOM     24  H   LIG d   1      20.548 -20.826  12.088  0.00  0.00     0.147 HD
BRANCH  23  25
ATOM     25  C   LIG d   1      21.305 -21.460  13.778  0.00  0.00     0.116 C 
ATOM     26  N   LIG d   1      21.975 -22.521  14.252  0.00  0.00    -0.248 NA
ATOM     27  C   LIG d   1      21.917 -22.709  15.588  0.00  0.00     0.118 C 
ATOM     28  C   LIG d   1      21.319 -21.817  16.465  0.00  0.00     0.019 C 
ATOM     29  C   LIG d   1      20.725 -20.673  15.941  0.00  0.00     0.005 C 
ATOM     30  C   LIG d   1      20.713 -20.488  14.563  0.00  0.00     0.045 C 
ENDBRANCH  23  25
ENDBRANCH  20  23
ENDBRANCH   1  20
TORSDOF 8
ENDMDL
MODEL 3
REMARK minimizedAffinity -5.82941723REMARK CNNscore 0.426816046REMARK CNNaffinity 5.04050827REMARK  8 active torsions:
REMARK  status: ('A' for Active; 'I' for Inactive)
REMARK    1  A    between atoms: S_1  and  N_7 
REMARK    2  A    between atoms: S_1  and  C_11 
REMARK    3  A    between atoms: O_4  and  C_22 
REMARK    4  A    between atoms: N_7  and  C_17 
REMARK    5  A    between atoms: N_8  and  N_10 
REMARK    6  A    between atoms: N_8  and  C_14 
REMARK    7  A    between atoms: N_10  and  C_18 
REMARK    8  A    between atoms: C_20  and  C_28 
ROOT
ATOM      1  C   LIG d   1      18.280  -4.442  -2.983  0.00  0.00     0.075 A 
ATOM      2  C   LIG d   1      18.984  -3.445  -2.312  0.00  0.00     0.027 A 
ATOM      3  C   LIG d   1      18.950  -5.518  -3.562  0.00  0.00     0.027 A 
ATOM      4  C   LIG d   1      21.093  -4.568  -2.853  0.00  0.00     0.079 A 
ATOM      5  C   LIG d   1      20.380  -3.515  -2.259  0.00  0.00     0.035 A 
ATOM      6  C   LIG d   1      20.344  -5.564  -3.498  0.00  0.00     0.035 A 
ENDROOT
BRANCH   4   7
ATOM      7  N   LIG d   1      22.442  -4.682  -2.870  0.00  0.00    -0.150 NA
BRANCH   7   8
ATOM      8  N   LIG d   1      23.101  -4.667  -1.541  0.00  0.00    -0.150 NA
BRANCH   8   9
ATOM      9  C   LIG d   1      23.438  -5.888  -1.034  0.00  0.00     0.080 A 
ATOM     10  C   LIG d   1      23.767  -6.009   0.344  0.00  0.00     0.054 A 
ATOM     11  C   LIG d   1      24.135  -7.235   0.958  0.00  0.00     0.076 A 
ATOM     12  C   LIG d   1      24.179  -8.373   0.134  0.00  0.00     0.082 A 
ATOM     13  C   LIG d   1      23.874  -8.297  -1.221  0.00  0.00     0.040 A 
ATOM     14  C   LIG d   1      23.511  -7.069  -1.788  0.00  0.00     0.036 A 
BRANCH  11  15
ATOM     15  C   LIG d   1      24.471  -7.338   2.434  0.00  0.00     0.212 C 
ATOM     16  O   LIG d   1      23.550  -6.947   3.248  0.00  0.00    -0.644 OA
ATOM     17  O   LIG d   1      25.596  -7.794   2.822  0.00  0.00    -0.644 OA
ENDBRANCH  11  15
BRANCH  12  18
ATOM     18  O   LIG d   1      24.523  -9.614   0.626  0.00  0.00    -0.360 OA
ATOM     19  H   LIG d   1      24.680  -9.439   1.593  0.00  0.00     0.217 HD
ENDBRANCH  12  18
ENDBRANCH   8   9
ENDBRANCH   7   8
ENDBRANCH   4   7
BRANCH   1  20
ATOM     20  S   LIG d   1      16.521  -4.355  -3.113  0.00  0.00     0.247 S 
ATOM     21  O   LIG d   1      15.945  -4.570  -1.796  0.00  0.00    -0.205 OA
ATOM     22  O   LIG d   1      16.130  -3.185  -3.878  0.00  0.00    -0.205 OA
BRANCH  20  23
ATOM     23  N   LIG d   1      16.122  -5.749  -4.007  0.00  0.00    -0.165 NA
ATOM     24  H   LIG d   1      16.959  -6.334  -4.044  0.00  0.00     0.147 HD
BRANCH  23  25
ATOM     25  C   LIG d   1      15.753  -5.513  -5.350  0.00  0.00     0.116 C 
ATOM     26  N   LIG d   1      14.421  -5.537  -5.499  0.00  0.00    -0.248 NA
ATOM     27  C   LIG d   1      13.964  -5.451  -6.766  0.00  0.00     0.118 C 
ATOM     28  C   LIG d   1      14.780  -5.225  -7.864  0.00  0.00     0.019 C 
ATOM     29  C   LIG d   1      16.150  -5.101  -7.654  0.00  0.00     0.005 C 
ATOM     30  C   LIG d   1      16.653  -5.252  -6.367  0.00  0.00     0.045 C 
ENDBRANCH  23  25
ENDBRANCH  20  23
ENDBRANCH   1  20
TORSDOF 8
ENDMDL
MODEL 4
REMARK minimizedAffinity -6.24286985REMARK CNNscore 0.422827154REMARK CNNaffinity 5.02510929REMARK  8 active torsions:
REMARK  status: ('A' for Active; 'I' for Inactive)
REMARK    1  A    between atoms: S_1  and  N_7 
REMARK    2  A    between atoms: S_1  and  C_11 
REMARK    3  A    between atoms: O_4  and  C_22 
REMARK    4  A    between atoms: N_7  and  C_17 
REMARK    5  A    between atoms: N_8  and  N_10 
REMARK    6  A    between atoms: N_8  and  C_14 
REMARK    7  A    between atoms: N_10  and  C_18 
REMARK    8  A    between atoms: C_20  and  C_28 
ROOT
ATOM      1  C   LIG d   1      18.176  -4.585  -2.981  0.00  0.00     0.075 A 
ATOM      2  C   LIG d   1      19.014  -3.627  -2.414  0.00  0.00     0.027 A 
ATOM      3  C   LIG d   1      18.706  -5.719  -3.595  0.00  0.00     0.027 A 
ATOM      4  C   LIG d   1      20.972  -4.911  -3.137  0.00  0.00     0.079 A 
ATOM      5  C   LIG d   1      20.399  -3.797  -2.503  0.00  0.00     0.035 A 
ATOM      6  C   LIG d   1      20.093  -5.863  -3.674  0.00  0.00     0.035 A 
ENDROOT
BRANCH   4   7
ATOM      7  N   LIG d   1      22.300  -5.122  -3.288  0.00  0.00    -0.150 NA
BRANCH   7   8
ATOM      8  N   LIG d   1      22.921  -6.028  -2.290  0.00  0.00    -0.150 NA
BRANCH   8   9
ATOM      9  C   LIG d   1      23.606  -5.416  -1.282  0.00  0.00     0.080 A 
ATOM     10  C   LIG d   1      23.807  -6.102  -0.053  0.00  0.00     0.054 A 
ATOM     11  C   LIG d   1      24.501  -5.544   1.053  0.00  0.00     0.076 A 
ATOM     12  C   LIG d   1      24.998  -4.238   0.900  0.00  0.00     0.082 A 
ATOM     13  C   LIG d   1      24.817  -3.528  -0.282  0.00  0.00     0.040 A 
ATOM     14  C   LIG d   1      24.129  -4.115  -1.352  0.00  0.00     0.036 A 
BRANCH  11  15
ATOM     15  C   LIG d   1      24.710  -6.302   2.350  0.00  0.00     0.212 C 
ATOM     16  O   LIG d   1      23.674  -6.913   2.816  0.00  0.00    -0.644 OA
ATOM     17  O   LIG d   1      25.849  -6.328   2.921  0.00  0.00    -0.644 OA
ENDBRANCH  11  15
BRANCH  12  18
ATOM     18  O   LIG d   1      25.689  -3.601   1.909  0.00  0.00    -0.360 OA
ATOM     19  H   LIG d   1      25.712  -4.282   2.634  0.00  0.00     0.217 HD
ENDBRANCH  12  18
ENDBRANCH   8   9
ENDBRANCH   7   8
ENDBRANCH   4   7
BRANCH   1  20
ATOM     20  S   LIG d   1      16.424  -4.374  -2.933  0.00  0.00     0.247 S 
ATOM     21  O   LIG d   1      15.845  -5.011  -4.104  0.00  0.00    -0.205 OA
ATOM     22  O   LIG d   1      15.912  -4.707  -1.617  0.00  0.00    -0.205 OA
BRANCH  20  23
ATOM     23  N   LIG d   1      16.221  -2.702  -3.190  0.00  0.00    -0.165 NA
ATOM     24  H   LIG d   1      15.326  -2.439  -2.773  0.00  0.00     0.147 HD
BRANCH  23  25
ATOM     25  C   LIG d   1      16.149  -2.309  -4.545  0.00  0.00     0.116 C 
ATOM     26  N   LIG d   1      14.888  -2.031  -4.904  0.00  0.00    -0.248 NA
ATOM     27  C   LIG d   1      14.688  -1.769  -6.214  0.00  0.00     0.118 C 
ATOM     28  C   LIG d   1      15.713  -1.662  -7.142  0.00  0.00     0.019 C 
ATOM     29  C   LIG d   1      17.020  -1.855  -6.706  0.00  0.00     0.005 C 
ATOM     30  C   LIG d   1      17.248  -2.191  -5.376  0.00  0.00     0.045 C 
ENDBRANCH  23  25
ENDBRANCH  20  23
ENDBRANCH   1  20
TORSDOF 8
ENDMDL
MODEL 5
REMARK minimizedAffinity -6.37353325REMARK CNNscore 0.408588082REMARK CNNaffinity 4.94316578REMARK  8 active torsions:
REMARK  status: ('A' for Active; 'I' for Inactive)
REMARK    1  A    between atoms: S_1  and  N_7 
REMARK    2  A    between atoms: S_1  and  C_11 
REMARK    3  A    between atoms: O_4  and  C_22 
REMARK    4  A    between atoms: N_7  and  C_17 
REMARK    5  A    between atoms: N_8  and  N_10 
REMARK    6  A    between atoms: N_8  and  C_14 
REMARK    7  A    between atoms: N_10  and  C_18 
REMARK    8  A    between atoms: C_20  and  C_28 
ROOT
ATOM      1  C   LIG d   1      18.247  -4.382  -2.882  0.00  0.00     0.075 A 
ATOM      2  C   LIG d   1      19.004  -3.404  -2.242  0.00  0.00     0.027 A 
ATOM      3  C   LIG d   1      18.867  -5.425  -3.570  0.00  0.00     0.027 A 
ATOM      4  C   LIG d   1      21.060  -4.476  -3.034  0.00  0.00     0.079 A 
ATOM      5  C   LIG d   1      20.399  -3.458  -2.329  0.00  0.00     0.035 A 
ATOM      6  C   LIG d   1      20.261  -5.454  -3.645  0.00  0.00     0.035 A 
ENDROOT
BRANCH   4   7
ATOM      7  N   LIG d   1      22.402  -4.571  -3.187  0.00  0.00    -0.150 NA
BRANCH   7   8
ATOM      8  N   LIG d   1      23.198  -4.436  -1.943  0.00  0.00    -0.150 NA
BRANCH   8   9
ATOM      9  C   LIG d   1      23.435  -5.595  -1.263  0.00  0.00     0.080 A 
ATOM     10  C   LIG d   1      23.722  -5.546   0.129  0.00  0.00     0.054 A 
ATOM     11  C   LIG d   1      23.987  -6.697   0.916  0.00  0.00     0.076 A 
ATOM     12  C   LIG d   1      23.966  -7.938   0.258  0.00  0.00     0.082 A 
ATOM     13  C   LIG d   1      23.698  -8.031  -1.103  0.00  0.00     0.040 A 
ATOM     14  C   LIG d   1      23.438  -6.872  -1.846  0.00  0.00     0.036 A 
BRANCH  11  15
ATOM     15  C   LIG d   1      24.280  -6.616   2.403  0.00  0.00     0.212 C 
ATOM     16  O   LIG d   1      25.269  -5.860   2.739  0.00  0.00    -0.644 OA
ATOM     17  O   LIG d   1      23.574  -7.258   3.248  0.00  0.00    -0.644 OA
ENDBRANCH  11  15
BRANCH  12  18
ATOM     18  O   LIG d   1      24.207  -9.120   0.927  0.00  0.00    -0.360 OA
ATOM     19  H   LIG d   1      24.355  -8.823   1.865  0.00  0.00     0.217 HD
ENDBRANCH  12  18
ENDBRANCH   8   9
ENDBRANCH   7   8
ENDBRANCH   4   7
BRANCH   1  20
ATOM     20  S   LIG d   1      16.483  -4.314  -2.836  0.00  0.00     0.247 S 
ATOM     21  O   LIG d   1      15.958  -5.048  -3.975  0.00  0.00    -0.205 OA
ATOM     22  O   LIG d   1      16.002  -4.627  -1.504  0.00  0.00    -0.205 OA
BRANCH  20  23
ATOM     23  N   LIG d   1      16.144  -2.677  -3.167  0.00  0.00    -0.165 NA
ATOM     24  H   LIG d   1      15.236  -2.467  -2.750  0.00  0.00     0.147 HD
BRANCH  23  25
ATOM     25  C   LIG d   1      16.026  -2.356  -4.538  0.00  0.00     0.116 C 
ATOM     26  N   LIG d   1      17.212  -2.008  -5.059  0.00  0.00    -0.248 NA
ATOM     27  C   LIG d   1      17.191  -1.557  -6.331  0.00  0.00     0.118 C 
ATOM     28  C   LIG d   1      16.056  -1.555  -7.128  0.00  0.00     0.019 C 
ATOM     29  C   LIG d   1      14.865  -2.023  -6.582  0.00  0.00     0.005 C 
ATOM     30  C   LIG d   1      14.845  -2.431  -5.253  0.00  0.00     0.045 C 
ENDBRANCH  23  25
ENDBRANCH  20  23
ENDBRANCH   1  20
TORSDOF 8
ENDMDL
MODEL 6
REMARK minimizedAffinity -6.43851376REMARK CNNscore 0.378571749REMARK CNNaffinity 4.56534052REMARK  8 active torsions:
REMARK  status: ('A' for Active; 'I' for Inactive)
REMARK    1  A    between atoms: S_1  and  N_7 
REMARK    2  A    between atoms: S_1  and  C_11 
REMARK    3  A    between atoms: O_4  and  C_22 
REMARK    4  A    between atoms: N_7  and  C_17 
REMARK    5  A    between atoms: N_8  and  N_10 
REMARK    6  A    between atoms: N_8  and  C_14 
REMARK    7  A    between atoms: N_10  and  C_18 
REMARK    8  A    between atoms: C_20  and  C_28 
ROOT
ATOM      1  C   LIG d   1      24.940  -1.753  16.664  0.00  0.00     0.075 A 
ATOM      2  C   LIG d   1      23.816  -0.950  16.850  0.00  0.00     0.027 A 
ATOM      3  C   LIG d   1      25.434  -2.534  17.708  0.00  0.00     0.027 A 
ATOM      4  C   LIG d   1      23.696  -1.658  19.192  0.00  0.00     0.079 A 
ATOM      5  C   LIG d   1      23.211  -0.907  18.110  0.00  0.00     0.035 A 
ATOM      6  C   LIG d   1      24.815  -2.471  18.957  0.00  0.00     0.035 A 
ENDROOT
BRANCH   4   7
ATOM      7  N   LIG d   1      23.181  -1.639  20.444  0.00  0.00    -0.150 NA
BRANCH   7   8
ATOM      8  N   LIG d   1      24.118  -2.031  21.526  0.00  0.00    -0.150 NA
BRANCH   8   9
ATOM      9  C   LIG d   1      23.722  -1.718  22.793  0.00  0.00     0.080 A 
ATOM     10  C   LIG d   1      24.566  -2.039  23.892  0.00  0.00     0.054 A 
ATOM     11  C   LIG d   1      24.235  -1.758  25.243  0.00  0.00     0.076 A 
ATOM     12  C   LIG d   1      22.997  -1.138  25.481  0.00  0.00     0.082 A 
ATOM     13  C   LIG d   1      22.137  -0.816  24.437  0.00  0.00     0.040 A 
ATOM     14  C   LIG d   1      22.501  -1.106  23.116  0.00  0.00     0.036 A 
BRANCH  11  15
ATOM     15  C   LIG d   1      25.160  -2.102  26.396  0.00  0.00     0.212 C 
ATOM     16  O   LIG d   1      25.607  -1.101  27.075  0.00  0.00    -0.644 OA
ATOM     17  O   LIG d   1      25.456  -3.313  26.663  0.00  0.00    -0.644 OA
ENDBRANCH  11  15
BRANCH  12  18
ATOM     18  O   LIG d   1      22.576  -0.820  26.755  0.00  0.00    -0.360 OA
ATOM     19  H   LIG d   1      23.334  -1.119  27.326  0.00  0.00     0.217 HD
ENDBRANCH  12  18
ENDBRANCH   8   9
ENDBRANCH   7   8
ENDBRANCH   4   7
BRANCH   1  20
ATOM     20  S   LIG d   1      25.758  -1.789  15.101  0.00  0.00     0.247 S 
ATOM     21  O   LIG d   1      26.901  -2.682  15.193  0.00  0.00    -0.205 OA
ATOM     22  O   LIG d   1      24.795  -1.975  14.032  0.00  0.00    -0.205 OA
BRANCH  20  23
ATOM     23  N   LIG d   1      26.425  -0.226  14.968  0.00  0.00    -0.165 NA
ATOM     24  H   LIG d   1      25.747   0.426  15.365  0.00  0.00     0.147 HD
BRANCH  23  25
ATOM     25  C   LIG d   1      26.660   0.214  13.647  0.00  0.00     0.116 C 
ATOM     26  N   LIG d   1      27.879  -0.149  13.223  0.00  0.00    -0.248 NA
ATOM     27  C   LIG d   1      28.256   0.332  12.019  0.00  0.00     0.118 C 
ATOM     28  C   LIG d   1      27.419   1.056  11.184  0.00  0.00     0.019 C 
ATOM     29  C   LIG d   1      26.124   1.322  11.616  0.00  0.00     0.005 C 
ATOM     30  C   LIG d   1      25.731   0.894  12.880  0.00  0.00     0.045 C 
ENDBRANCH  23  25
ENDBRANCH  20  23
ENDBRANCH   1  20
TORSDOF 8
ENDMDL
MODEL 7
REMARK minimizedAffinity -7.72996283REMARK CNNscore 0.339986026REMARK CNNaffinity 5.17515087REMARK  8 active torsions:
REMARK  status: ('A' for Active; 'I' for Inactive)
REMARK    1  A    between atoms: S_1  and  N_7 
REMARK    2  A    between atoms: S_1  and  C_11 
REMARK    3  A    between atoms: O_4  and  C_22 
REMARK    4  A    between atoms: N_7  and  C_17 
REMARK    5  A    between atoms: N_8  and  N_10 
REMARK    6  A    between atoms: N_8  and  C_14 
REMARK    7  A    between atoms: N_10  and  C_18 
REMARK    8  A    between atoms: C_20  and  C_28 
ROOT
ATOM      1  C   LIG d   1       9.583  16.424   2.287  0.00  0.00     0.075 A 
ATOM      2  C   LIG d   1       9.923  17.359   3.262  0.00  0.00     0.027 A 
ATOM      3  C   LIG d   1       9.479  16.799   0.949  0.00  0.00     0.027 A 
ATOM      4  C   LIG d   1      10.000  19.114   1.554  0.00  0.00     0.079 A 
ATOM      5  C   LIG d   1      10.122  18.691   2.888  0.00  0.00     0.035 A 
ATOM      6  C   LIG d   1       9.679  18.136   0.600  0.00  0.00     0.035 A 
ENDROOT
BRANCH   4   7
ATOM      7  N   LIG d   1      10.145  20.390   1.126  0.00  0.00    -0.150 NA
BRANCH   7   8
ATOM      8  N   LIG d   1       9.933  20.604  -0.327  0.00  0.00    -0.150 NA
BRANCH   8   9
ATOM      9  C   LIG d   1       9.550  21.862  -0.689  0.00  0.00     0.080 A 
ATOM     10  C   LIG d   1       8.428  22.035  -1.545  0.00  0.00     0.054 A 
ATOM     11  C   LIG d   1       7.960  23.303  -1.980  0.00  0.00     0.076 A 
ATOM     12  C   LIG d   1       8.668  24.431  -1.531  0.00  0.00     0.082 A 
ATOM     13  C   LIG d   1       9.776  24.307  -0.700  0.00  0.00     0.040 A 
ATOM     14  C   LIG d   1      10.205  23.038  -0.290  0.00  0.00     0.036 A 
BRANCH  11  15
ATOM     15  C   LIG d   1       6.753  23.459  -2.886  0.00  0.00     0.212 C 
ATOM     16  O   LIG d   1       6.846  22.902  -4.045  0.00  0.00    -0.644 OA
ATOM     17  O   LIG d   1       5.720  24.098  -2.500  0.00  0.00    -0.644 OA
ENDBRANCH  11  15
BRANCH  12  18
ATOM     18  O   LIG d   1       8.300  25.711  -1.890  0.00  0.00    -0.360 OA
ATOM     19  H   LIG d   1       7.496  25.564  -2.459  0.00  0.00     0.217 HD
ENDBRANCH  12  18
ENDBRANCH   8   9
ENDBRANCH   7   8
ENDBRANCH   4   7
BRANCH   1  20
ATOM     20  S   LIG d   1       9.273  14.744   2.735  0.00  0.00     0.247 S 
ATOM     21  O   LIG d   1      10.543  14.094   3.012  0.00  0.00    -0.205 OA
ATOM     22  O   LIG d   1       8.208  14.673   3.718  0.00  0.00    -0.205 OA
BRANCH  20  23
ATOM     23  N   LIG d   1       8.722  14.044   1.283  0.00  0.00    -0.165 NA
ATOM     24  H   LIG d   1       8.862  14.733   0.543  0.00  0.00     0.147 HD
BRANCH  23  25
ATOM     25  C   LIG d   1       7.346  13.723   1.259  0.00  0.00     0.116 C 
ATOM     26  N   LIG d   1       7.124  12.499   1.759  0.00  0.00    -0.248 NA
ATOM     27  C   LIG d   1       5.858  12.040   1.664  0.00  0.00     0.118 C 
ATOM     28  C   LIG d   1       4.796  12.802   1.200  0.00  0.00     0.019 C 
ATOM     29  C   LIG d   1       5.051  14.106   0.787  0.00  0.00     0.005 C 
ATOM     30  C   LIG d   1       6.357  14.581   0.813  0.00  0.00     0.045 C 
ENDBRANCH  23  25
ENDBRANCH  20  23
ENDBRANCH   1  20
TORSDOF 8
ENDMDL
MODEL 8
REMARK minimizedAffinity -6.1096158REMARK CNNscore 0.325900733REMARK CNNaffinity 4.81116009REMARK  8 active torsions:
REMARK  status: ('A' for Active; 'I' for Inactive)
REMARK    1  A    between atoms: S_1  and  N_7 
REMARK    2  A    between atoms: S_1  and  C_11 
REMARK    3  A    between atoms: O_4  and  C_22 
REMARK    4  A    between atoms: N_7  and  C_17 
REMARK    5  A    between atoms: N_8  and  N_10 
REMARK    6  A    between atoms: N_8  and  C_14 
REMARK    7  A    between atoms: N_10  and  C_18 
REMARK    8  A    between atoms: C_20  and  C_28 
ROOT
ATOM      1  C   LIG d   1      20.462   1.476  -3.649  0.00  0.00     0.075 A 
ATOM      2  C   LIG d   1      20.089   0.672  -4.723  0.00  0.00     0.027 A 
ATOM      3  C   LIG d   1      20.287   1.035  -2.338  0.00  0.00     0.027 A 
ATOM      4  C   LIG d   1      19.280  -1.037  -3.166  0.00  0.00     0.079 A 
ATOM      5  C   LIG d   1      19.498  -0.570  -4.472  0.00  0.00     0.035 A 
ATOM      6  C   LIG d   1      19.691  -0.207  -2.113  0.00  0.00     0.035 A 
ENDROOT
BRANCH   4   7
ATOM      7  N   LIG d   1      18.685  -2.211  -2.849  0.00  0.00    -0.150 NA
BRANCH   7   8
ATOM      8  N   LIG d   1      18.639  -3.219  -3.937  0.00  0.00    -0.150 NA
BRANCH   8   9
ATOM      9  C   LIG d   1      19.534  -4.243  -3.834  0.00  0.00     0.080 A 
ATOM     10  C   LIG d   1      19.204  -5.521  -4.363  0.00  0.00     0.054 A 
ATOM     11  C   LIG d   1      20.068  -6.645  -4.296  0.00  0.00     0.076 A 
ATOM     12  C   LIG d   1      21.307  -6.459  -3.659  0.00  0.00     0.082 A 
ATOM     13  C   LIG d   1      21.667  -5.230  -3.120  0.00  0.00     0.040 A 
ATOM     14  C   LIG d   1      20.788  -4.143  -3.209  0.00  0.00     0.036 A 
BRANCH  11  15
ATOM     15  C   LIG d   1      19.693  -7.995  -4.879  0.00  0.00     0.212 C 
ATOM     16  O   LIG d   1      18.488  -8.392  -4.647  0.00  0.00    -0.644 OA
ATOM     17  O   LIG d   1      20.531  -8.673  -5.559  0.00  0.00    -0.644 OA
ENDBRANCH  11  15
BRANCH  12  18
ATOM     18  O   LIG d   1      22.223  -7.484  -3.540  0.00  0.00    -0.360 OA
ATOM     19  H   LIG d   1      21.773  -8.245  -3.997  0.00  0.00     0.217 HD
ENDBRANCH  12  18
ENDBRANCH   8   9
ENDBRANCH   7   8
ENDBRANCH   4   7
BRANCH   1  20
ATOM     20  S   LIG d   1      21.161   3.072  -3.932  0.00  0.00     0.247 S 
ATOM     21  O   LIG d   1      22.545   3.060  -3.488  0.00  0.00    -0.205 OA
ATOM     22  O   LIG d   1      20.849   3.528  -5.274  0.00  0.00    -0.205 OA
BRANCH  20  23
ATOM     23  N   LIG d   1      20.344   4.065  -2.815  0.00  0.00    -0.165 NA
ATOM     24  H   LIG d   1      19.804   3.451  -2.204  0.00  0.00     0.147 HD
BRANCH  23  25
ATOM     25  C   LIG d   1      19.414   4.964  -3.382  0.00  0.00     0.116 C 
ATOM     26  N   LIG d   1      18.290   4.332  -3.752  0.00  0.00    -0.248 NA
ATOM     27  C   LIG d   1      17.386   5.076  -4.424  0.00  0.00     0.118 C 
ATOM     28  C   LIG d   1      17.514   6.441  -4.631  0.00  0.00     0.019 C 
ATOM     29  C   LIG d   1      18.647   7.080  -4.139  0.00  0.00     0.005 C 
ATOM     30  C   LIG d   1      19.625   6.326  -3.501  0.00  0.00     0.045 C 
ENDBRANCH  23  25
ENDBRANCH  20  23
ENDBRANCH   1  20
TORSDOF 8
ENDMDL
MODEL 9
REMARK minimizedAffinity -6.48523331REMARK CNNscore 0.325880349REMARK CNNaffinity 4.74334812REMARK  8 active torsions:
REMARK  status: ('A' for Active; 'I' for Inactive)
REMARK    1  A    between atoms: S_1  and  N_7 
REMARK    2  A    between atoms: S_1  and  C_11 
REMARK    3  A    between atoms: O_4  and  C_22 
REMARK    4  A    between atoms: N_7  and  C_17 
REMARK    5  A    between atoms: N_8  and  N_10 
REMARK    6  A    between atoms: N_8  and  C_14 
REMARK    7  A    between atoms: N_10  and  C_18 
REMARK    8  A    between atoms: C_20  and  C_28 
ROOT
ATOM      1  C   LIG d   1      21.286 -19.186   8.127  0.00  0.00     0.075 A 
ATOM      2  C   LIG d   1      21.624 -20.535   8.205  0.00  0.00     0.027 A 
ATOM      3  C   LIG d   1      21.341 -18.373   9.259  0.00  0.00     0.027 A 
ATOM      4  C   LIG d   1      22.025 -20.297  10.610  0.00  0.00     0.079 A 
ATOM      5  C   LIG d   1      21.983 -21.076   9.443  0.00  0.00     0.035 A 
ATOM      6  C   LIG d   1      21.700 -18.938  10.484  0.00  0.00     0.035 A 
ENDROOT
BRANCH   4   7
ATOM      7  N   LIG d   1      22.332 -20.760  11.845  0.00  0.00    -0.150 NA
BRANCH   7   8
ATOM      8  N   LIG d   1      21.214 -21.397  12.584  0.00  0.00    -0.150 NA
BRANCH   8   9
ATOM      9  C   LIG d   1      21.390 -21.518  13.931  0.00  0.00     0.080 A 
ATOM     10  C   LIG d   1      22.204 -22.567  14.441  0.00  0.00     0.054 A 
ATOM     11  C   LIG d   1      22.439 -22.775  15.826  0.00  0.00     0.076 A 
ATOM     12  C   LIG d   1      21.813 -21.889  16.719  0.00  0.00     0.082 A 
ATOM     13  C   LIG d   1      21.001 -20.856  16.264  0.00  0.00     0.040 A 
ATOM     14  C   LIG d   1      20.797 -20.681  14.889  0.00  0.00     0.036 A 
BRANCH  11  15
ATOM     15  C   LIG d   1      23.322 -23.896  16.342  0.00  0.00     0.212 C 
ATOM     16  O   LIG d   1      22.761 -24.722  17.157  0.00  0.00    -0.644 OA
ATOM     17  O   LIG d   1      24.537 -23.999  15.971  0.00  0.00    -0.644 OA
ENDBRANCH  11  15
BRANCH  12  18
ATOM     18  O   LIG d   1      21.974 -21.999  18.084  0.00  0.00    -0.360 OA
ATOM     19  H   LIG d   1      22.590 -22.775  18.178  0.00  0.00     0.217 HD
ENDBRANCH  12  18
ENDBRANCH   8   9
ENDBRANCH   7   8
ENDBRANCH   4   7
BRANCH   1  20
ATOM     20  S   LIG d   1      20.776 -18.484   6.590  0.00  0.00     0.247 S 
ATOM     21  O   LIG d   1      21.763 -18.815   5.576  0.00  0.00    -0.205 OA
ATOM     22  O   LIG d   1      19.376 -18.776   6.342  0.00  0.00    -0.205 OA
BRANCH  20  23
ATOM     23  N   LIG d   1      20.946 -16.808   6.846  0.00  0.00    -0.165 NA
ATOM     24  H   LIG d   1      20.072 -16.475   7.256  0.00  0.00     0.147 HD
BRANCH  23  25
ATOM     25  C   LIG d   1      21.142 -16.041   5.676  0.00  0.00     0.116 C 
ATOM     26  N   LIG d   1      22.344 -15.446   5.681  0.00  0.00    -0.248 NA
ATOM     27  C   LIG d   1      22.583 -14.585   4.669  0.00  0.00     0.118 C 
ATOM     28  C   LIG d   1      21.719 -14.392   3.602  0.00  0.00     0.019 C 
ATOM     29  C   LIG d   1      20.527 -15.109   3.580  0.00  0.00     0.005 C 
ATOM     30  C   LIG d   1      20.226 -15.953   4.643  0.00  0.00     0.045 C 
ENDBRANCH  23  25
ENDBRANCH  20  23
ENDBRANCH   1  20
TORSDOF 8
ENDMDL
