MODEL 1
REMARK VINA RESULT:      -7.5      0.000      0.000
REMARK  10 active torsions:
REMARK  status: ('A' for Active; 'I' for Inactive)
REMARK       I    between atoms: N_6  and  C_20 
REMARK    1  A    between atoms: N_6  and  C_21 
REMARK    2  A    between atoms: N_6  and  C_24 
REMARK    3  A    between atoms: N_7  and  C_14 
REMARK    4  A    between atoms: N_7  and  C_22 
REMARK    5  A    between atoms: N_9  and  C_35 
REMARK    6  A    between atoms: C_12  and  C_14 
REMARK    7  A    between atoms: C_15  and  C_20 
REMARK    8  A    between atoms: C_21  and  C_23 
REMARK    9  A    between atoms: C_23  and  C_31 
REMARK   10  A    between atoms: C_30  and  C_35 
ROOT
ATOM      1  N   LIG d   1       9.843  -1.905  23.573  0.00  0.00    -0.337 N 
ATOM      2  N   LIG d   1       7.911  -0.882  23.944  0.00  0.00    -0.232 NA
ATOM      3  C   LIG d   1       8.896  -2.902  23.587  0.00  0.00     0.064 A 
ATOM      4  C   LIG d   1       9.216  -0.709  23.848  0.00  0.00     0.120 A 
ATOM      5  C   LIG d   1       7.693  -2.228  23.781  0.00  0.00     0.086 A 
ATOM      6  C   LIG d   1       6.527  -4.340  23.654  0.00  0.00     0.035 A 
ATOM      7  C   LIG d   1       6.485  -2.941  23.784  0.00  0.00     0.051 A 
ATOM      8  C   LIG d   1       8.965  -4.291  23.427  0.00  0.00     0.033 A 
ATOM      9  C   LIG d   1       7.756  -4.994  23.470  0.00  0.00     0.019 A 
ATOM     10  C   LIG d   1      11.246  -2.072  23.283  0.00  0.00     0.158 C 
ENDROOT
BRANCH   4  11
ATOM     11  C   LIG d   1       9.923   0.608  23.988  0.00  0.00     0.171 C 
BRANCH  11  12
ATOM     12  N   LIG d   1      10.478   1.090  22.724  0.00  0.00    -0.286 NA
ATOM     13  H   LIG d   1      11.382   0.640  22.563  0.00  0.00     0.128 HD
BRANCH  12  14
ATOM     14  C   LIG d   1       9.676   1.059  21.577  0.00  0.00     0.008 A 
ATOM     15  C   LIG d   1       9.942   0.231  20.479  0.00  0.00     0.024 A 
ATOM     16  C   LIG d   1       9.068   0.169  19.385  0.00  0.00     0.017 A 
ATOM     17  C   LIG d   1       7.888   0.920  19.381  0.00  0.00     0.009 A 
ATOM     18  C   LIG d   1       7.584   1.707  20.494  0.00  0.00     0.017 A 
ATOM     19  C   LIG d   1       8.464   1.764  21.580  0.00  0.00     0.024 A 
BRANCH  17  20
ATOM     20  C   LIG d   1       6.970   0.885  18.217  0.00  0.00     0.123 C 
ATOM     21  N   LIG d   1       6.633  -0.280  17.704  0.00  0.00    -0.284 NA
ATOM     22  H   LIG d   1       5.996  -0.236  16.900  0.00  0.00     0.188 HD
BRANCH  20  23
ATOM     23  N   LIG d   1       6.475   1.941  17.700  0.00  0.00    -0.384 N 
ATOM     24  H   LIG d   1       7.086   2.746  17.622  0.00  0.00     0.157 HD
ATOM     25  H   LIG d   1       5.533   1.968  17.333  0.00  0.00     0.157 HD
ENDBRANCH  20  23
ENDBRANCH  17  20
ENDBRANCH  12  14
ENDBRANCH  11  12
ENDBRANCH   4  11
BRANCH   6  26
ATOM     26  C   LIG d   1       5.283  -5.163  23.582  0.00  0.00     0.259 C 
ATOM     27  O   LIG d   1       4.991  -5.615  22.469  0.00  0.00    -0.267 OA
ATOM     28  N   LIG d   1       4.457  -5.308  24.706  0.00  0.00    -0.298 N 
BRANCH  28  29
ATOM     29  C   LIG d   1       3.062  -5.715  24.460  0.00  0.00     0.144 C 
BRANCH  29  30
ATOM     30  C   LIG d   1       2.671  -6.992  25.195  0.00  0.00     0.133 C 
BRANCH  30  31
ATOM     31  C   LIG d   1       2.839  -8.253  24.364  0.00  0.00     0.174 C 
ATOM     32  O   LIG d   1       2.754  -8.086  23.116  0.00  0.00    -0.648 OA
ATOM     33  O   LIG d   1       3.073  -9.315  25.008  0.00  0.00    -0.648 OA
ENDBRANCH  30  31
ENDBRANCH  29  30
ENDBRANCH  28  29
BRANCH  28  34
ATOM     34  C   LIG d   1       4.983  -5.418  26.027  0.00  0.00     0.132 A 
ATOM     35  N   LIG d   1       5.772  -6.483  26.315  0.00  0.00    -0.243 NA
ATOM     36  C   LIG d   1       6.263  -6.598  27.569  0.00  0.00     0.119 A 
ATOM     37  C   LIG d   1       6.007  -5.698  28.586  0.00  0.00     0.019 A 
ATOM     38  C   LIG d   1       5.201  -4.611  28.292  0.00  0.00     0.005 A 
ATOM     39  C   LIG d   1       4.685  -4.470  27.004  0.00  0.00     0.051 A 
ENDBRANCH  28  34
ENDBRANCH   6  26
TORSDOF 10
ENDMDL
MODEL 2
REMARK VINA RESULT:      -7.4     29.231     31.813
REMARK  10 active torsions:
REMARK  status: ('A' for Active; 'I' for Inactive)
REMARK       I    between atoms: N_6  and  C_20 
REMARK    1  A    between atoms: N_6  and  C_21 
REMARK    2  A    between atoms: N_6  and  C_24 
REMARK    3  A    between atoms: N_7  and  C_14 
REMARK    4  A    between atoms: N_7  and  C_22 
REMARK    5  A    between atoms: N_9  and  C_35 
REMARK    6  A    between atoms: C_12  and  C_14 
REMARK    7  A    between atoms: C_15  and  C_20 
REMARK    8  A    between atoms: C_21  and  C_23 
REMARK    9  A    between atoms: C_23  and  C_31 
REMARK   10  A    between atoms: C_30  and  C_35 
ROOT
ATOM      1  N   LIG d   1      19.240  -1.664  -4.575  0.00  0.00    -0.337 N 
ATOM      2  N   LIG d   1      19.225  -0.905  -2.491  0.00  0.00    -0.232 NA
ATOM      3  C   LIG d   1      19.822  -0.419  -4.634  0.00  0.00     0.064 A 
ATOM      4  C   LIG d   1      18.844  -1.895  -3.276  0.00  0.00     0.120 A 
ATOM      5  C   LIG d   1      19.835   0.015  -3.310  0.00  0.00     0.086 A 
ATOM      6  C   LIG d   1      20.940   2.042  -4.019  0.00  0.00     0.035 A 
ATOM      7  C   LIG d   1      20.428   1.243  -2.982  0.00  0.00     0.051 A 
ATOM      8  C   LIG d   1      20.350   0.344  -5.682  0.00  0.00     0.033 A 
ATOM      9  C   LIG d   1      20.904   1.584  -5.345  0.00  0.00     0.019 A 
ATOM     10  C   LIG d   1      19.101  -2.587  -5.675  0.00  0.00     0.158 C 
ENDROOT
BRANCH   4  11
ATOM     11  C   LIG d   1      18.106  -3.121  -2.819  0.00  0.00     0.171 C 
BRANCH  11  12
ATOM     12  N   LIG d   1      16.654  -2.972  -2.906  0.00  0.00    -0.286 NA
ATOM     13  H   LIG d   1      16.406  -1.997  -2.720  0.00  0.00     0.128 HD
BRANCH  12  14
ATOM     14  C   LIG d   1      15.989  -3.465  -4.035  0.00  0.00     0.008 A 
ATOM     15  C   LIG d   1      15.919  -4.828  -4.349  0.00  0.00     0.024 A 
ATOM     16  C   LIG d   1      15.173  -5.286  -5.444  0.00  0.00     0.017 A 
ATOM     17  C   LIG d   1      14.455  -4.383  -6.235  0.00  0.00     0.009 A 
ATOM     18  C   LIG d   1      14.472  -3.028  -5.901  0.00  0.00     0.017 A 
ATOM     19  C   LIG d   1      15.222  -2.581  -4.807  0.00  0.00     0.024 A 
BRANCH  17  20
ATOM     20  C   LIG d   1      13.685  -4.853  -7.413  0.00  0.00     0.123 C 
ATOM     21  N   LIG d   1      12.377  -4.710  -7.420  0.00  0.00    -0.284 NA
ATOM     22  H   LIG d   1      11.903  -5.055  -8.263  0.00  0.00     0.188 HD
BRANCH  20  23
ATOM     23  N   LIG d   1      14.243  -5.376  -8.434  0.00  0.00    -0.384 N 
ATOM     24  H   LIG d   1      14.805  -4.765  -9.016  0.00  0.00     0.157 HD
ATOM     25  H   LIG d   1      14.177  -6.365  -8.635  0.00  0.00     0.157 HD
ENDBRANCH  20  23
ENDBRANCH  17  20
ENDBRANCH  12  14
ENDBRANCH  11  12
ENDBRANCH   4  11
BRANCH   6  26
ATOM     26  C   LIG d   1      21.644   3.331  -3.747  0.00  0.00     0.259 C 
ATOM     27  O   LIG d   1      22.867   3.261  -3.583  0.00  0.00    -0.267 OA
ATOM     28  N   LIG d   1      20.919   4.520  -3.585  0.00  0.00    -0.298 N 
BRANCH  28  29
ATOM     29  C   LIG d   1      21.594   5.622  -2.877  0.00  0.00     0.144 C 
BRANCH  29  30
ATOM     30  C   LIG d   1      21.961   6.786  -3.790  0.00  0.00     0.133 C 
BRANCH  30  31
ATOM     31  C   LIG d   1      21.137   8.039  -3.546  0.00  0.00     0.174 C 
ATOM     32  O   LIG d   1      21.576   8.800  -2.639  0.00  0.00    -0.648 OA
ATOM     33  O   LIG d   1      20.129   8.194  -4.292  0.00  0.00    -0.648 OA
ENDBRANCH  30  31
ENDBRANCH  29  30
ENDBRANCH  28  29
BRANCH  28  34
ATOM     34  C   LIG d   1      19.751   4.808  -4.352  0.00  0.00     0.132 A 
ATOM     35  N   LIG d   1      18.571   4.942  -3.696  0.00  0.00    -0.243 NA
ATOM     36  C   LIG d   1      17.460   5.202  -4.420  0.00  0.00     0.119 A 
ATOM     37  C   LIG d   1      17.446   5.335  -5.795  0.00  0.00     0.019 A 
ATOM     38  C   LIG d   1      18.650   5.197  -6.465  0.00  0.00     0.005 A 
ATOM     39  C   LIG d   1      19.811   4.931  -5.739  0.00  0.00     0.051 A 
ENDBRANCH  28  34
ENDBRANCH   6  26
TORSDOF 10
ENDMDL
MODEL 3
REMARK VINA RESULT:      -7.3     27.527     32.190
REMARK  10 active torsions:
REMARK  status: ('A' for Active; 'I' for Inactive)
REMARK       I    between atoms: N_6  and  C_20 
REMARK    1  A    between atoms: N_6  and  C_21 
REMARK    2  A    between atoms: N_6  and  C_24 
REMARK    3  A    between atoms: N_7  and  C_14 
REMARK    4  A    between atoms: N_7  and  C_22 
REMARK    5  A    between atoms: N_9  and  C_35 
REMARK    6  A    between atoms: C_12  and  C_14 
REMARK    7  A    between atoms: C_15  and  C_20 
REMARK    8  A    between atoms: C_21  and  C_23 
REMARK    9  A    between atoms: C_23  and  C_31 
REMARK   10  A    between atoms: C_30  and  C_35 
ROOT
ATOM      1  N   LIG d   1       8.937  16.897   3.496  0.00  0.00    -0.337 N 
ATOM      2  N   LIG d   1       9.815  16.504   1.498  0.00  0.00    -0.232 NA
ATOM      3  C   LIG d   1       8.652  18.013   2.744  0.00  0.00     0.064 A 
ATOM      4  C   LIG d   1       9.688  16.036   2.726  0.00  0.00     0.120 A 
ATOM      5  C   LIG d   1       9.179  17.721   1.487  0.00  0.00     0.086 A 
ATOM      6  C   LIG d   1       8.364  19.849   0.688  0.00  0.00     0.035 A 
ATOM      7  C   LIG d   1       9.010  18.628   0.431  0.00  0.00     0.051 A 
ATOM      8  C   LIG d   1       7.980  19.209   3.020  0.00  0.00     0.033 A 
ATOM      9  C   LIG d   1       7.852  20.121   1.967  0.00  0.00     0.019 A 
ATOM     10  C   LIG d   1       8.497  16.651   4.848  0.00  0.00     0.158 C 
ENDROOT
BRANCH   4  11
ATOM     11  C   LIG d   1      10.254  14.734   3.215  0.00  0.00     0.171 C 
BRANCH  11  12
ATOM     12  N   LIG d   1       9.740  13.581   2.479  0.00  0.00    -0.286 NA
ATOM     13  H   LIG d   1      10.058  12.723   2.936  0.00  0.00     0.128 HD
BRANCH  12  14
ATOM     14  C   LIG d   1       8.373  13.525   2.177  0.00  0.00     0.008 A 
ATOM     15  C   LIG d   1       7.370  13.592   3.152  0.00  0.00     0.024 A 
ATOM     16  C   LIG d   1       6.014  13.616   2.801  0.00  0.00     0.017 A 
ATOM     17  C   LIG d   1       5.633  13.600   1.455  0.00  0.00     0.009 A 
ATOM     18  C   LIG d   1       6.624  13.589   0.472  0.00  0.00     0.017 A 
ATOM     19  C   LIG d   1       7.976  13.563   0.834  0.00  0.00     0.024 A 
BRANCH  17  20
ATOM     20  C   LIG d   1       4.200  13.596   1.072  0.00  0.00     0.123 C 
ATOM     21  N   LIG d   1       3.307  13.179   1.945  0.00  0.00    -0.284 NA
ATOM     22  H   LIG d   1       2.333  13.200   1.619  0.00  0.00     0.188 HD
BRANCH  20  23
ATOM     23  N   LIG d   1       3.792  13.999  -0.067  0.00  0.00    -0.384 N 
ATOM     24  H   LIG d   1       4.235  13.595  -0.885  0.00  0.00     0.157 HD
ATOM     25  H   LIG d   1       3.026  14.652  -0.163  0.00  0.00     0.157 HD
ENDBRANCH  20  23
ENDBRANCH  17  20
ENDBRANCH  12  14
ENDBRANCH  11  12
ENDBRANCH   4  11
BRANCH   6  26
ATOM     26  C   LIG d   1       8.087  20.839  -0.397  0.00  0.00     0.259 C 
ATOM     27  O   LIG d   1       7.073  20.638  -1.074  0.00  0.00    -0.267 OA
ATOM     28  N   LIG d   1       9.001  21.865  -0.677  0.00  0.00    -0.298 N 
BRANCH  28  29
ATOM     29  C   LIG d   1       8.912  22.492  -2.007  0.00  0.00     0.144 C 
BRANCH  29  30
ATOM     30  C   LIG d   1       8.040  23.742  -2.023  0.00  0.00     0.133 C 
BRANCH  30  31
ATOM     31  C   LIG d   1       6.720  23.559  -2.754  0.00  0.00     0.174 C 
ATOM     32  O   LIG d   1       5.705  23.997  -2.144  0.00  0.00    -0.648 OA
ATOM     33  O   LIG d   1       6.788  23.019  -3.894  0.00  0.00    -0.648 OA
ENDBRANCH  30  31
ENDBRANCH  29  30
ENDBRANCH  28  29
BRANCH  28  34
ATOM     34  C   LIG d   1       9.737  22.528   0.350  0.00  0.00     0.132 A 
ATOM     35  N   LIG d   1       9.080  23.419   1.135  0.00  0.00    -0.243 NA
ATOM     36  C   LIG d   1       9.776  24.059   2.100  0.00  0.00     0.119 A 
ATOM     37  C   LIG d   1      11.123  23.869   2.338  0.00  0.00     0.019 A 
ATOM     38  C   LIG d   1      11.794  22.960   1.537  0.00  0.00     0.005 A 
ATOM     39  C   LIG d   1      11.097  22.285   0.535  0.00  0.00     0.051 A 
ENDBRANCH  28  34
ENDBRANCH   6  26
TORSDOF 10
ENDMDL
MODEL 4
REMARK VINA RESULT:      -7.2     22.774     26.970
REMARK  10 active torsions:
REMARK  status: ('A' for Active; 'I' for Inactive)
REMARK       I    between atoms: N_6  and  C_20 
REMARK    1  A    between atoms: N_6  and  C_21 
REMARK    2  A    between atoms: N_6  and  C_24 
REMARK    3  A    between atoms: N_7  and  C_14 
REMARK    4  A    between atoms: N_7  and  C_22 
REMARK    5  A    between atoms: N_9  and  C_35 
REMARK    6  A    between atoms: C_12  and  C_14 
REMARK    7  A    between atoms: C_15  and  C_20 
REMARK    8  A    between atoms: C_21  and  C_23 
REMARK    9  A    between atoms: C_23  and  C_31 
REMARK   10  A    between atoms: C_30  and  C_35 
ROOT
ATOM      1  N   LIG d   1       3.341   8.774   4.133  0.00  0.00    -0.337 N 
ATOM      2  N   LIG d   1       4.444   8.924   2.215  0.00  0.00    -0.232 NA
ATOM      3  C   LIG d   1       4.526   9.401   4.439  0.00  0.00     0.064 A 
ATOM      4  C   LIG d   1       3.355   8.453   2.793  0.00  0.00     0.120 A 
ATOM      5  C   LIG d   1       5.178   9.516   3.213  0.00  0.00     0.086 A 
ATOM      6  C   LIG d   1       6.996  10.655   4.325  0.00  0.00     0.035 A 
ATOM      7  C   LIG d   1       6.413  10.178   3.138  0.00  0.00     0.051 A 
ATOM      8  C   LIG d   1       5.071   9.891   5.631  0.00  0.00     0.033 A 
ATOM      9  C   LIG d   1       6.320  10.515   5.548  0.00  0.00     0.019 A 
ATOM     10  C   LIG d   1       2.252   8.528   5.046  0.00  0.00     0.158 C 
ENDROOT
BRANCH   4  11
ATOM     11  C   LIG d   1       2.265   7.697   2.089  0.00  0.00     0.171 C 
BRANCH  11  12
ATOM     12  N   LIG d   1       1.154   8.555   1.680  0.00  0.00    -0.286 NA
ATOM     13  H   LIG d   1       0.933   9.201   2.441  0.00  0.00     0.128 HD
BRANCH  12  14
ATOM     14  C   LIG d   1       1.229   9.218   0.449  0.00  0.00     0.008 A 
ATOM     15  C   LIG d   1       1.300   8.548  -0.779  0.00  0.00     0.024 A 
ATOM     16  C   LIG d   1       1.289   9.249  -1.993  0.00  0.00     0.017 A 
ATOM     17  C   LIG d   1       1.178  10.643  -2.001  0.00  0.00     0.009 A 
ATOM     18  C   LIG d   1       1.051  11.319  -0.787  0.00  0.00     0.017 A 
ATOM     19  C   LIG d   1       1.065  10.610   0.420  0.00  0.00     0.024 A 
BRANCH  17  20
ATOM     20  C   LIG d   1       1.195  11.397  -3.278  0.00  0.00     0.123 C 
ATOM     21  N   LIG d   1       2.351  11.659  -3.850  0.00  0.00    -0.284 NA
ATOM     22  H   LIG d   1       2.295  12.184  -4.731  0.00  0.00     0.188 HD
BRANCH  20  23
ATOM     23  N   LIG d   1       0.129  11.789  -3.859  0.00  0.00    -0.384 N 
ATOM     24  H   LIG d   1      -0.250  12.685  -3.571  0.00  0.00     0.157 HD
ATOM     25  H   LIG d   1      -0.297  11.264  -4.610  0.00  0.00     0.157 HD
ENDBRANCH  20  23
ENDBRANCH  17  20
ENDBRANCH  12  14
ENDBRANCH  11  12
ENDBRANCH   4  11
BRANCH   6  26
ATOM     26  C   LIG d   1       8.275  11.426   4.321  0.00  0.00     0.259 C 
ATOM     27  O   LIG d   1       9.259  10.853   4.803  0.00  0.00    -0.267 OA
ATOM     28  N   LIG d   1       8.303  12.760   3.890  0.00  0.00    -0.298 N 
BRANCH  28  29
ATOM     29  C   LIG d   1       9.441  13.581   4.337  0.00  0.00     0.144 C 
BRANCH  29  30
ATOM     30  C   LIG d   1       9.487  14.954   3.676  0.00  0.00     0.133 C 
BRANCH  30  31
ATOM     31  C   LIG d   1      10.665  15.141   2.734  0.00  0.00     0.174 C 
ATOM     32  O   LIG d   1      10.358  15.307   1.520  0.00  0.00    -0.648 OA
ATOM     33  O   LIG d   1      11.809  15.139   3.269  0.00  0.00    -0.648 OA
ENDBRANCH  30  31
ENDBRANCH  29  30
ENDBRANCH  28  29
BRANCH  28  34
ATOM     34  C   LIG d   1       7.505  13.223   2.802  0.00  0.00     0.132 A 
ATOM     35  N   LIG d   1       7.935  12.973   1.539  0.00  0.00    -0.243 NA
ATOM     36  C   LIG d   1       7.189  13.421   0.506  0.00  0.00     0.119 A 
ATOM     37  C   LIG d   1       6.011  14.128   0.652  0.00  0.00     0.019 A 
ATOM     38  C   LIG d   1       5.572  14.385   1.940  0.00  0.00     0.005 A 
ATOM     39  C   LIG d   1       6.325  13.930   3.023  0.00  0.00     0.051 A 
ENDBRANCH  28  34
ENDBRANCH   6  26
TORSDOF 10
ENDMDL
MODEL 5
REMARK VINA RESULT:      -7.1     22.071     26.357
REMARK  10 active torsions:
REMARK  status: ('A' for Active; 'I' for Inactive)
REMARK       I    between atoms: N_6  and  C_20 
REMARK    1  A    between atoms: N_6  and  C_21 
REMARK    2  A    between atoms: N_6  and  C_24 
REMARK    3  A    between atoms: N_7  and  C_14 
REMARK    4  A    between atoms: N_7  and  C_22 
REMARK    5  A    between atoms: N_9  and  C_35 
REMARK    6  A    between atoms: C_12  and  C_14 
REMARK    7  A    between atoms: C_15  and  C_20 
REMARK    8  A    between atoms: C_21  and  C_23 
REMARK    9  A    between atoms: C_23  and  C_31 
REMARK   10  A    between atoms: C_30  and  C_35 
ROOT
ATOM      1  N   LIG d   1       4.513   7.985   4.479  0.00  0.00    -0.337 N 
ATOM      2  N   LIG d   1       4.911   8.329   2.325  0.00  0.00    -0.232 NA
ATOM      3  C   LIG d   1       5.391   9.043   4.432  0.00  0.00     0.064 A 
ATOM      4  C   LIG d   1       4.293   7.548   3.191  0.00  0.00     0.120 A 
ATOM      5  C   LIG d   1       5.591   9.261   3.071  0.00  0.00     0.086 A 
ATOM      6  C   LIG d   1       7.039  11.116   3.613  0.00  0.00     0.035 A 
ATOM      7  C   LIG d   1       6.397  10.327   2.645  0.00  0.00     0.051 A 
ATOM      8  C   LIG d   1       5.997   9.830   5.418  0.00  0.00     0.033 A 
ATOM      9  C   LIG d   1       6.828  10.867   4.979  0.00  0.00     0.019 A 
ATOM     10  C   LIG d   1       3.897   7.447   5.667  0.00  0.00     0.158 C 
ENDROOT
BRANCH   4  11
ATOM     11  C   LIG d   1       3.443   6.364   2.830  0.00  0.00     0.171 C 
BRANCH  11  12
ATOM     12  N   LIG d   1       2.372   6.701   1.894  0.00  0.00    -0.286 NA
ATOM     13  H   LIG d   1       2.762   7.246   1.122  0.00  0.00     0.128 HD
BRANCH  12  14
ATOM     14  C   LIG d   1       1.532   5.681   1.429  0.00  0.00     0.008 A 
ATOM     15  C   LIG d   1       0.394   5.921   0.650  0.00  0.00     0.024 A 
ATOM     16  C   LIG d   1      -0.373   4.866   0.136  0.00  0.00     0.017 A 
ATOM     17  C   LIG d   1       0.005   3.540   0.371  0.00  0.00     0.009 A 
ATOM     18  C   LIG d   1       1.168   3.287   1.100  0.00  0.00     0.017 A 
ATOM     19  C   LIG d   1       1.925   4.347   1.611  0.00  0.00     0.024 A 
BRANCH  17  20
ATOM     20  C   LIG d   1      -0.815   2.416  -0.143  0.00  0.00     0.123 C 
ATOM     21  N   LIG d   1      -1.213   1.481   0.694  0.00  0.00    -0.284 NA
ATOM     22  H   LIG d   1      -1.776   0.731   0.276  0.00  0.00     0.188 HD
BRANCH  20  23
ATOM     23  N   LIG d   1      -1.168   2.326  -1.365  0.00  0.00    -0.384 N 
ATOM     24  H   LIG d   1      -2.097   1.965  -1.551  0.00  0.00     0.157 HD
ATOM     25  H   LIG d   1      -0.576   2.645  -2.120  0.00  0.00     0.157 HD
ENDBRANCH  20  23
ENDBRANCH  17  20
ENDBRANCH  12  14
ENDBRANCH  11  12
ENDBRANCH   4  11
BRANCH   6  26
ATOM     26  C   LIG d   1       7.860  12.307   3.243  0.00  0.00     0.259 C 
ATOM     27  O   LIG d   1       9.085  12.141   3.224  0.00  0.00    -0.267 OA
ATOM     28  N   LIG d   1       7.255  13.556   3.041  0.00  0.00    -0.298 N 
BRANCH  28  29
ATOM     29  C   LIG d   1       8.124  14.742   3.144  0.00  0.00     0.144 C 
BRANCH  29  30
ATOM     30  C   LIG d   1       9.066  14.901   1.957  0.00  0.00     0.133 C 
BRANCH  30  31
ATOM     31  C   LIG d   1      10.336  15.671   2.281  0.00  0.00     0.174 C 
ATOM     32  O   LIG d   1      10.232  16.927   2.210  0.00  0.00    -0.648 OA
ATOM     33  O   LIG d   1      11.337  14.975   2.612  0.00  0.00    -0.648 OA
ENDBRANCH  30  31
ENDBRANCH  29  30
ENDBRANCH  28  29
BRANCH  28  34
ATOM     34  C   LIG d   1       5.978  13.690   2.421  0.00  0.00     0.132 A 
ATOM     35  N   LIG d   1       4.877  13.698   3.215  0.00  0.00    -0.243 NA
ATOM     36  C   LIG d   1       3.665  13.812   2.630  0.00  0.00     0.119 A 
ATOM     37  C   LIG d   1       3.470  13.915   1.266  0.00  0.00     0.019 A 
ATOM     38  C   LIG d   1       4.592  13.906   0.455  0.00  0.00     0.005 A 
ATOM     39  C   LIG d   1       5.855  13.792   1.036  0.00  0.00     0.051 A 
ENDBRANCH  28  34
ENDBRANCH   6  26
TORSDOF 10
ENDMDL
MODEL 6
REMARK VINA RESULT:      -7.0     29.301     31.203
REMARK  10 active torsions:
REMARK  status: ('A' for Active; 'I' for Inactive)
REMARK       I    between atoms: N_6  and  C_20 
REMARK    1  A    between atoms: N_6  and  C_21 
REMARK    2  A    between atoms: N_6  and  C_24 
REMARK    3  A    between atoms: N_7  and  C_14 
REMARK    4  A    between atoms: N_7  and  C_22 
REMARK    5  A    between atoms: N_9  and  C_35 
REMARK    6  A    between atoms: C_12  and  C_14 
REMARK    7  A    between atoms: C_15  and  C_20 
REMARK    8  A    between atoms: C_21  and  C_23 
REMARK    9  A    between atoms: C_23  and  C_31 
REMARK   10  A    between atoms: C_30  and  C_35 
ROOT
ATOM      1  N   LIG d   1      19.308  -1.183  -3.421  0.00  0.00    -0.337 N 
ATOM      2  N   LIG d   1      19.138  -0.410  -5.493  0.00  0.00    -0.232 NA
ATOM      3  C   LIG d   1      18.134  -1.705  -3.912  0.00  0.00     0.064 A 
ATOM      4  C   LIG d   1      19.854  -0.364  -4.384  0.00  0.00     0.120 A 
ATOM      5  C   LIG d   1      18.074  -1.237  -5.223  0.00  0.00     0.086 A 
ATOM      6  C   LIG d   1      16.008  -2.450  -5.527  0.00  0.00     0.035 A 
ATOM      7  C   LIG d   1      17.020  -1.633  -6.059  0.00  0.00     0.051 A 
ATOM      8  C   LIG d   1      17.154  -2.541  -3.365  0.00  0.00     0.033 A 
ATOM      9  C   LIG d   1      16.089  -2.898  -4.199  0.00  0.00     0.019 A 
ATOM     10  C   LIG d   1      19.890  -1.471  -2.133  0.00  0.00     0.158 C 
ENDROOT
BRANCH   4  11
ATOM     11  C   LIG d   1      21.106   0.445  -4.202  0.00  0.00     0.171 C 
BRANCH  11  12
ATOM     12  N   LIG d   1      21.169   1.600  -5.095  0.00  0.00    -0.286 NA
ATOM     13  H   LIG d   1      21.034   1.285  -6.059  0.00  0.00     0.128 HD
BRANCH  12  14
ATOM     14  C   LIG d   1      20.383   2.723  -4.808  0.00  0.00     0.008 A 
ATOM     15  C   LIG d   1      20.187   3.209  -3.509  0.00  0.00     0.024 A 
ATOM     16  C   LIG d   1      19.462   4.384  -3.273  0.00  0.00     0.017 A 
ATOM     17  C   LIG d   1      18.937   5.116  -4.343  0.00  0.00     0.009 A 
ATOM     18  C   LIG d   1      19.171   4.673  -5.645  0.00  0.00     0.017 A 
ATOM     19  C   LIG d   1      19.895   3.496  -5.870  0.00  0.00     0.024 A 
BRANCH  17  20
ATOM     20  C   LIG d   1      18.142   6.345  -4.104  0.00  0.00     0.123 C 
ATOM     21  N   LIG d   1      16.890   6.386  -4.508  0.00  0.00    -0.284 NA
ATOM     22  H   LIG d   1      16.395   7.264  -4.313  0.00  0.00     0.188 HD
BRANCH  20  23
ATOM     23  N   LIG d   1      18.617   7.365  -3.502  0.00  0.00    -0.384 N 
ATOM     24  H   LIG d   1      18.103   8.234  -3.591  0.00  0.00     0.157 HD
ATOM     25  H   LIG d   1      19.440   7.308  -2.917  0.00  0.00     0.157 HD
ENDBRANCH  20  23
ENDBRANCH  17  20
ENDBRANCH  12  14
ENDBRANCH  11  12
ENDBRANCH   4  11
BRANCH   6  26
ATOM     26  C   LIG d   1      14.888  -2.968  -6.369  0.00  0.00     0.259 C 
ATOM     27  O   LIG d   1      14.090  -2.125  -6.794  0.00  0.00    -0.267 OA
ATOM     28  N   LIG d   1      14.716  -4.346  -6.558  0.00  0.00    -0.298 N 
BRANCH  28  29
ATOM     29  C   LIG d   1      13.379  -4.800  -6.981  0.00  0.00     0.144 C 
BRANCH  29  30
ATOM     30  C   LIG d   1      13.373  -5.440  -8.364  0.00  0.00     0.133 C 
BRANCH  30  31
ATOM     31  C   LIG d   1      12.968  -4.489  -9.478  0.00  0.00     0.174 C 
ATOM     32  O   LIG d   1      13.842  -3.634  -9.795  0.00  0.00    -0.648 OA
ATOM     33  O   LIG d   1      11.824  -4.676  -9.979  0.00  0.00    -0.648 OA
ENDBRANCH  30  31
ENDBRANCH  29  30
ENDBRANCH  28  29
BRANCH  28  34
ATOM     34  C   LIG d   1      15.821  -5.238  -6.695  0.00  0.00     0.132 A 
ATOM     35  N   LIG d   1      16.698  -5.019  -7.707  0.00  0.00    -0.243 NA
ATOM     36  C   LIG d   1      17.739  -5.869  -7.849  0.00  0.00     0.119 A 
ATOM     37  C   LIG d   1      17.967  -6.957  -7.029  0.00  0.00     0.019 A 
ATOM     38  C   LIG d   1      17.072  -7.181  -5.996  0.00  0.00     0.005 A 
ATOM     39  C   LIG d   1      15.990  -6.316  -5.828  0.00  0.00     0.051 A 
ENDBRANCH  28  34
ENDBRANCH   6  26
TORSDOF 10
ENDMDL
MODEL 7
REMARK VINA RESULT:      -6.9     29.299     33.621
REMARK  10 active torsions:
REMARK  status: ('A' for Active; 'I' for Inactive)
REMARK       I    between atoms: N_6  and  C_20 
REMARK    1  A    between atoms: N_6  and  C_21 
REMARK    2  A    between atoms: N_6  and  C_24 
REMARK    3  A    between atoms: N_7  and  C_14 
REMARK    4  A    between atoms: N_7  and  C_22 
REMARK    5  A    between atoms: N_9  and  C_35 
REMARK    6  A    between atoms: C_12  and  C_14 
REMARK    7  A    between atoms: C_15  and  C_20 
REMARK    8  A    between atoms: C_21  and  C_23 
REMARK    9  A    between atoms: C_23  and  C_31 
REMARK   10  A    between atoms: C_30  and  C_35 
ROOT
ATOM      1  N   LIG d   1      14.076  -5.279 -10.936  0.00  0.00    -0.337 N 
ATOM      2  N   LIG d   1      12.564  -4.577  -9.474  0.00  0.00    -0.232 NA
ATOM      3  C   LIG d   1      14.772  -5.040  -9.774  0.00  0.00     0.064 A 
ATOM      4  C   LIG d   1      12.758  -4.934 -10.729  0.00  0.00     0.120 A 
ATOM      5  C   LIG d   1      13.795  -4.640  -8.866  0.00  0.00     0.086 A 
ATOM      6  C   LIG d   1      15.498  -4.452  -7.165  0.00  0.00     0.035 A 
ATOM      7  C   LIG d   1      14.145  -4.372  -7.535  0.00  0.00     0.051 A 
ATOM      8  C   LIG d   1      16.123  -5.155  -9.426  0.00  0.00     0.033 A 
ATOM      9  C   LIG d   1      16.464  -4.848  -8.104  0.00  0.00     0.019 A 
ATOM     10  C   LIG d   1      14.620  -5.831 -12.153  0.00  0.00     0.158 C 
ENDROOT
BRANCH   4  11
ATOM     11  C   LIG d   1      11.691  -4.987 -11.784  0.00  0.00     0.171 C 
BRANCH  11  12
ATOM     12  N   LIG d   1      11.190  -3.664 -12.150  0.00  0.00    -0.286 NA
ATOM     13  H   LIG d   1      10.768  -3.227 -11.328  0.00  0.00     0.128 HD
BRANCH  12  14
ATOM     14  C   LIG d   1      12.043  -2.778 -12.821  0.00  0.00     0.008 A 
ATOM     15  C   LIG d   1      12.393  -1.520 -12.314  0.00  0.00     0.024 A 
ATOM     16  C   LIG d   1      13.315  -0.699 -12.977  0.00  0.00     0.017 A 
ATOM     17  C   LIG d   1      13.930  -1.137 -14.155  0.00  0.00     0.009 A 
ATOM     18  C   LIG d   1      13.631  -2.411 -14.641  0.00  0.00     0.017 A 
ATOM     19  C   LIG d   1      12.707  -3.222 -13.973  0.00  0.00     0.024 A 
BRANCH  17  20
ATOM     20  C   LIG d   1      14.885  -0.265 -14.881  0.00  0.00     0.123 C 
ATOM     21  N   LIG d   1      14.830   1.038 -14.695  0.00  0.00    -0.284 NA
ATOM     22  H   LIG d   1      15.517   1.585 -15.226  0.00  0.00     0.188 HD
BRANCH  20  23
ATOM     23  N   LIG d   1      15.776  -0.727 -15.668  0.00  0.00    -0.384 N 
ATOM     24  H   LIG d   1      16.118  -0.105 -16.392  0.00  0.00     0.157 HD
ATOM     25  H   LIG d   1      16.168  -1.652 -15.551  0.00  0.00     0.157 HD
ENDBRANCH  20  23
ENDBRANCH  17  20
ENDBRANCH  12  14
ENDBRANCH  11  12
ENDBRANCH   4  11
BRANCH   6  26
ATOM     26  C   LIG d   1      15.944  -4.246  -5.754  0.00  0.00     0.259 C 
ATOM     27  O   LIG d   1      15.422  -3.303  -5.149  0.00  0.00    -0.267 OA
ATOM     28  N   LIG d   1      16.977  -5.023  -5.211  0.00  0.00    -0.298 N 
BRANCH  28  29
ATOM     29  C   LIG d   1      17.669  -4.481  -4.029  0.00  0.00     0.144 C 
BRANCH  29  30
ATOM     30  C   LIG d   1      17.150  -5.051  -2.714  0.00  0.00     0.133 C 
BRANCH  30  31
ATOM     31  C   LIG d   1      16.394  -4.042  -1.865  0.00  0.00     0.174 C 
ATOM     32  O   LIG d   1      16.442  -2.851  -2.281  0.00  0.00    -0.648 OA
ATOM     33  O   LIG d   1      15.784  -4.509  -0.862  0.00  0.00    -0.648 OA
ENDBRANCH  30  31
ENDBRANCH  29  30
ENDBRANCH  28  29
BRANCH  28  34
ATOM     34  C   LIG d   1      17.132  -6.406  -5.525  0.00  0.00     0.132 A 
ATOM     35  N   LIG d   1      16.052  -7.218  -5.396  0.00  0.00    -0.243 NA
ATOM     36  C   LIG d   1      16.197  -8.531  -5.681  0.00  0.00     0.119 A 
ATOM     37  C   LIG d   1      17.384  -9.106  -6.091  0.00  0.00     0.019 A 
ATOM     38  C   LIG d   1      18.487  -8.279  -6.222  0.00  0.00     0.005 A 
ATOM     39  C   LIG d   1      18.361  -6.920  -5.936  0.00  0.00     0.051 A 
ENDBRANCH  28  34
ENDBRANCH   6  26
TORSDOF 10
ENDMDL
MODEL 8
REMARK VINA RESULT:      -6.8     17.866     20.828
REMARK  10 active torsions:
REMARK  status: ('A' for Active; 'I' for Inactive)
REMARK       I    between atoms: N_6  and  C_20 
REMARK    1  A    between atoms: N_6  and  C_21 
REMARK    2  A    between atoms: N_6  and  C_24 
REMARK    3  A    between atoms: N_7  and  C_14 
REMARK    4  A    between atoms: N_7  and  C_22 
REMARK    5  A    between atoms: N_9  and  C_35 
REMARK    6  A    between atoms: C_12  and  C_14 
REMARK    7  A    between atoms: C_15  and  C_20 
REMARK    8  A    between atoms: C_21  and  C_23 
REMARK    9  A    between atoms: C_23  and  C_31 
REMARK   10  A    between atoms: C_30  and  C_35 
ROOT
ATOM      1  N   LIG d   1      25.421  -0.914  23.346  0.00  0.00    -0.337 N 
ATOM      2  N   LIG d   1      23.710  -2.071  22.538  0.00  0.00    -0.232 NA
ATOM      3  C   LIG d   1      25.519  -0.808  21.978  0.00  0.00     0.064 A 
ATOM      4  C   LIG d   1      24.350  -1.729  23.641  0.00  0.00     0.120 A 
ATOM      5  C   LIG d   1      24.413  -1.509  21.501  0.00  0.00     0.086 A 
ATOM      6  C   LIG d   1      25.067  -0.940  19.246  0.00  0.00     0.035 A 
ATOM      7  C   LIG d   1      24.156  -1.554  20.123  0.00  0.00     0.051 A 
ATOM      8  C   LIG d   1      26.427  -0.164  21.129  0.00  0.00     0.033 A 
ATOM      9  C   LIG d   1      26.179  -0.250  19.755  0.00  0.00     0.019 A 
ATOM     10  C   LIG d   1      26.268  -0.256  24.310  0.00  0.00     0.158 C 
ENDROOT
BRANCH   4  11
ATOM     11  C   LIG d   1      23.956  -2.144  25.029  0.00  0.00     0.171 C 
BRANCH  11  12
ATOM     12  N   LIG d   1      23.596  -3.558  25.117  0.00  0.00    -0.286 NA
ATOM     13  H   LIG d   1      23.060  -3.818  24.286  0.00  0.00     0.128 HD
BRANCH  12  14
ATOM     14  C   LIG d   1      24.598  -4.496  25.397  0.00  0.00     0.008 A 
ATOM     15  C   LIG d   1      24.752  -5.688  24.679  0.00  0.00     0.024 A 
ATOM     16  C   LIG d   1      25.819  -6.560  24.937  0.00  0.00     0.017 A 
ATOM     17  C   LIG d   1      26.773  -6.239  25.908  0.00  0.00     0.009 A 
ATOM     18  C   LIG d   1      26.661  -5.028  26.592  0.00  0.00     0.017 A 
ATOM     19  C   LIG d   1      25.592  -4.165  26.329  0.00  0.00     0.024 A 
BRANCH  17  20
ATOM     20  C   LIG d   1      27.889  -7.168  26.210  0.00  0.00     0.123 C 
ATOM     21  N   LIG d   1      27.923  -7.767  27.382  0.00  0.00    -0.284 NA
ATOM     22  H   LIG d   1      28.720  -8.397  27.530  0.00  0.00     0.188 HD
BRANCH  20  23
ATOM     23  N   LIG d   1      28.814  -7.427  25.371  0.00  0.00    -0.384 N 
ATOM     24  H   LIG d   1      29.596  -6.783  25.333  0.00  0.00     0.157 HD
ATOM     25  H   LIG d   1      28.804  -8.263  24.801  0.00  0.00     0.157 HD
ENDBRANCH  20  23
ENDBRANCH  17  20
ENDBRANCH  12  14
ENDBRANCH  11  12
ENDBRANCH   4  11
BRANCH   6  26
ATOM     26  C   LIG d   1      24.831  -0.889  17.772  0.00  0.00     0.259 C 
ATOM     27  O   LIG d   1      24.498   0.209  17.311  0.00  0.00    -0.267 OA
ATOM     28  N   LIG d   1      24.885  -2.057  16.999  0.00  0.00    -0.298 N 
BRANCH  28  29
ATOM     29  C   LIG d   1      24.204  -2.025  15.693  0.00  0.00     0.144 C 
BRANCH  29  30
ATOM     30  C   LIG d   1      25.166  -2.098  14.513  0.00  0.00     0.133 C 
BRANCH  30  31
ATOM     31  C   LIG d   1      25.079  -0.904  13.576  0.00  0.00     0.174 C 
ATOM     32  O   LIG d   1      24.604   0.146  14.092  0.00  0.00    -0.648 OA
ATOM     33  O   LIG d   1      25.516  -1.085  12.405  0.00  0.00    -0.648 OA
ENDBRANCH  30  31
ENDBRANCH  29  30
ENDBRANCH  28  29
BRANCH  28  34
ATOM     34  C   LIG d   1      25.826  -3.097  17.259  0.00  0.00     0.132 A 
ATOM     35  N   LIG d   1      27.148  -2.797  17.190  0.00  0.00    -0.243 NA
ATOM     36  C   LIG d   1      28.043  -3.782  17.424  0.00  0.00     0.119 A 
ATOM     37  C   LIG d   1      27.698  -5.086  17.724  0.00  0.00     0.019 A 
ATOM     38  C   LIG d   1      26.349  -5.393  17.795  0.00  0.00     0.005 A 
ATOM     39  C   LIG d   1      25.407  -4.392  17.560  0.00  0.00     0.051 A 
ENDBRANCH  28  34
ENDBRANCH   6  26
TORSDOF 10
ENDMDL
MODEL 9
REMARK VINA RESULT:      -6.8      3.675      8.596
REMARK  10 active torsions:
REMARK  status: ('A' for Active; 'I' for Inactive)
REMARK       I    between atoms: N_6  and  C_20 
REMARK    1  A    between atoms: N_6  and  C_21 
REMARK    2  A    between atoms: N_6  and  C_24 
REMARK    3  A    between atoms: N_7  and  C_14 
REMARK    4  A    between atoms: N_7  and  C_22 
REMARK    5  A    between atoms: N_9  and  C_35 
REMARK    6  A    between atoms: C_12  and  C_14 
REMARK    7  A    between atoms: C_15  and  C_20 
REMARK    8  A    between atoms: C_21  and  C_23 
REMARK    9  A    between atoms: C_23  and  C_31 
REMARK   10  A    between atoms: C_30  and  C_35 
ROOT
ATOM      1  N   LIG d   1       6.704  -5.765  25.836  0.00  0.00    -0.337 N 
ATOM      2  N   LIG d   1       5.969  -5.042  23.872  0.00  0.00    -0.232 NA
ATOM      3  C   LIG d   1       7.685  -4.924  25.364  0.00  0.00     0.064 A 
ATOM      4  C   LIG d   1       5.713  -5.853  24.882  0.00  0.00     0.120 A 
ATOM      5  C   LIG d   1       7.179  -4.456  24.153  0.00  0.00     0.086 A 
ATOM      6  C   LIG d   1       9.161  -3.100  23.888  0.00  0.00     0.035 A 
ATOM      7  C   LIG d   1       7.903  -3.508  23.414  0.00  0.00     0.051 A 
ATOM      8  C   LIG d   1       8.922  -4.514  25.873  0.00  0.00     0.033 A 
ATOM      9  C   LIG d   1       9.649  -3.597  25.107  0.00  0.00     0.019 A 
ATOM     10  C   LIG d   1       6.692  -6.416  27.123  0.00  0.00     0.158 C 
ENDROOT
BRANCH   4  11
ATOM     11  C   LIG d   1       4.500  -6.730  24.996  0.00  0.00     0.171 C 
BRANCH  11  12
ATOM     12  N   LIG d   1       4.162  -7.395  23.739  0.00  0.00    -0.286 NA
ATOM     13  H   LIG d   1       4.230  -8.408  23.868  0.00  0.00     0.128 HD
BRANCH  12  14
ATOM     14  C   LIG d   1       2.979  -7.040  23.081  0.00  0.00     0.008 A 
ATOM     15  C   LIG d   1       2.461  -5.738  23.085  0.00  0.00     0.024 A 
ATOM     16  C   LIG d   1       1.319  -5.407  22.344  0.00  0.00     0.017 A 
ATOM     17  C   LIG d   1       0.682  -6.373  21.558  0.00  0.00     0.009 A 
ATOM     18  C   LIG d   1       1.220  -7.660  21.502  0.00  0.00     0.017 A 
ATOM     19  C   LIG d   1       2.360  -7.982  22.247  0.00  0.00     0.024 A 
BRANCH  17  20
ATOM     20  C   LIG d   1      -0.544  -6.042  20.794  0.00  0.00     0.123 C 
ATOM     21  N   LIG d   1      -0.852  -4.777  20.597  0.00  0.00    -0.284 NA
ATOM     22  H   LIG d   1      -1.713  -4.614  20.061  0.00  0.00     0.188 HD
BRANCH  20  23
ATOM     23  N   LIG d   1      -1.309  -6.935  20.299  0.00  0.00    -0.384 N 
ATOM     24  H   LIG d   1      -1.790  -7.543  20.953  0.00  0.00     0.157 HD
ATOM     25  H   LIG d   1      -1.475  -7.009  19.305  0.00  0.00     0.157 HD
ENDBRANCH  20  23
ENDBRANCH  17  20
ENDBRANCH  12  14
ENDBRANCH  11  12
ENDBRANCH   4  11
BRANCH   6  26
ATOM     26  C   LIG d   1       9.963  -2.048  23.194  0.00  0.00     0.259 C 
ATOM     27  O   LIG d   1      10.469  -2.372  22.114  0.00  0.00    -0.267 OA
ATOM     28  N   LIG d   1      10.200  -0.811  23.809  0.00  0.00    -0.298 N 
BRANCH  28  29
ATOM     29  C   LIG d   1      11.344  -0.027  23.310  0.00  0.00     0.144 C 
BRANCH  29  30
ATOM     30  C   LIG d   1      10.966   1.393  22.902  0.00  0.00     0.133 C 
BRANCH  30  31
ATOM     31  C   LIG d   1      10.443   1.503  21.479  0.00  0.00     0.174 C 
ATOM     32  O   LIG d   1      10.878   0.627  20.680  0.00  0.00    -0.648 OA
ATOM     33  O   LIG d   1       9.614   2.432  21.263  0.00  0.00    -0.648 OA
ENDBRANCH  30  31
ENDBRANCH  29  30
ENDBRANCH  28  29
BRANCH  28  34
ATOM     34  C   LIG d   1       9.216  -0.159  24.611  0.00  0.00     0.132 A 
ATOM     35  N   LIG d   1       9.496   0.055  25.921  0.00  0.00    -0.243 NA
ATOM     36  C   LIG d   1       8.562   0.660  26.687  0.00  0.00     0.119 A 
ATOM     37  C   LIG d   1       7.329   1.073  26.221  0.00  0.00     0.019 A 
ATOM     38  C   LIG d   1       7.042   0.855  24.884  0.00  0.00     0.005 A 
ATOM     39  C   LIG d   1       7.992   0.233  24.073  0.00  0.00     0.051 A 
ENDBRANCH  28  34
ENDBRANCH   6  26
TORSDOF 10
ENDMDL
