MODEL 1
REMARK VINA RESULT:      -9.0      0.000      0.000
REMARK  13 active torsions:
REMARK  status: ('A' for Active; 'I' for Inactive)
REMARK    1  A    between atoms: S_2  and  C_10 
REMARK    2  A    between atoms: S_2  and  C_13 
REMARK    3  A    between atoms: O_5  and  C_23 
REMARK    4  A    between atoms: C_7  and  C_10 
REMARK    5  A    between atoms: C_7  and  C_11 
REMARK    6  A    between atoms: C_11  and  C_12 
REMARK    7  A    between atoms: C_13  and  C_15 
REMARK    8  A    between atoms: C_13  and  C_14 
REMARK    9  A    between atoms: C_14  and  C_16 
REMARK   10  A    between atoms: C_16  and  C_19 
REMARK   11  A    between atoms: C_20  and  C_23 
REMARK   12  A    between atoms: C_21  and  C_28 
REMARK   13  A    between atoms: C_32  and  C_33 
ROOT
ATOM      1  C   LIG d   1      15.280  -2.420  -7.664  0.00  0.00     0.080 C 
ENDROOT
BRANCH   1   2
ATOM      2  S   LIG d   1      16.819  -3.260  -7.104  0.00  0.00    -0.159 SA
BRANCH   2   3
ATOM      3  C   LIG d   1      16.182  -4.965  -6.990  0.00  0.00     0.084 C 
BRANCH   3   4
ATOM      4  C   LIG d   1      15.504  -5.176  -5.651  0.00  0.00    -0.022 A 
ATOM      5  C   LIG d   1      15.402  -6.600  -5.132  0.00  0.00     0.011 A 
ATOM      6  C   LIG d   1      14.169  -5.907  -5.622  0.00  0.00     0.011 A 
BRANCH   4   7
ATOM      7  C   LIG d   1      15.753  -4.088  -4.608  0.00  0.00     0.123 C 
BRANCH   7   8
ATOM      8  C   LIG d   1      16.634  -4.553  -3.437  0.00  0.00     0.173 C 
ATOM      9  O   LIG d   1      16.042  -4.664  -2.323  0.00  0.00    -0.648 OA
ATOM     10  O   LIG d   1      17.843  -4.776  -3.725  0.00  0.00    -0.648 OA
ENDBRANCH   7   8
ENDBRANCH   4   7
ENDBRANCH   3   4
ENDBRANCH   2   3
ENDBRANCH   1   2
BRANCH   1  11
ATOM     11  C   LIG d   1      14.926  -1.235  -6.774  0.00  0.00    -0.043 A 
ATOM     12  C   LIG d   1      15.746  -0.094  -6.704  0.00  0.00     0.019 A 
ATOM     13  C   LIG d   1      15.433   0.985  -5.865  0.00  0.00    -0.036 A 
ATOM     14  C   LIG d   1      14.260   0.931  -5.106  0.00  0.00     0.011 A 
ATOM     15  C   LIG d   1      13.421  -0.182  -5.184  0.00  0.00     0.001 A 
ATOM     16  C   LIG d   1      13.755  -1.260  -6.006  0.00  0.00     0.008 A 
BRANCH  13  17
ATOM     17  C   LIG d   1      16.415   2.071  -5.737  0.00  0.00     0.014 C 
ATOM     18  C   LIG d   1      17.704   1.996  -6.109  0.00  0.00     0.032 C 
BRANCH  18  19
ATOM     19  C   LIG d   1      18.664   3.104  -6.020  0.00  0.00     0.057 A 
ATOM     20  N   LIG d   1      18.278   4.115  -5.205  0.00  0.00    -0.248 NA
ATOM     21  C   LIG d   1      19.099   5.166  -5.045  0.00  0.00     0.069 A 
ATOM     22  C   LIG d   1      20.341   5.265  -5.707  0.00  0.00    -0.007 A 
ATOM     23  C   LIG d   1      18.723   6.195  -4.194  0.00  0.00     0.056 A 
ATOM     24  C   LIG d   1      20.706   4.226  -6.566  0.00  0.00     0.016 A 
ATOM     25  C   LIG d   1      21.172   6.378  -5.503  0.00  0.00     0.015 A 
ATOM     26  C   LIG d   1      19.858   3.136  -6.729  0.00  0.00     0.032 A 
ATOM     27  C   LIG d   1      20.774   7.398  -4.642  0.00  0.00     0.025 A 
ATOM     28  C   LIG d   1      19.549   7.301  -3.992  0.00  0.00     0.036 A 
ATOM     29 CL   LIG d   1      19.049   8.558  -2.928  0.00  0.00    -0.084 Cl
ENDBRANCH  18  19
ENDBRANCH  13  17
ENDBRANCH   1  11
BRANCH   1  30
ATOM     30  C   LIG d   1      15.453  -2.008  -9.140  0.00  0.00     0.025 C 
BRANCH  30  31
ATOM     31  C   LIG d   1      15.005  -3.122 -10.104  0.00  0.00     0.040 C 
BRANCH  31  32
ATOM     32  C   LIG d   1      13.881  -2.687 -11.027  0.00  0.00    -0.049 A 
ATOM     33  C   LIG d   1      12.571  -3.233 -11.046  0.00  0.00    -0.019 A 
ATOM     34  C   LIG d   1      11.635  -2.624 -11.921  0.00  0.00     0.011 A 
ATOM     35  C   LIG d   1      11.974  -1.572 -12.774  0.00  0.00     0.001 A 
ATOM     36  C   LIG d   1      13.267  -1.081 -12.779  0.00  0.00     0.001 A 
ATOM     37  C   LIG d   1      14.205  -1.631 -11.913  0.00  0.00     0.007 A 
BRANCH  33  38
ATOM     38  C   LIG d   1      12.098  -4.425 -10.192  0.00  0.00     0.078 C 
ATOM     39  C   LIG d   1      12.710  -5.764 -10.634  0.00  0.00     0.051 C 
ATOM     40  C   LIG d   1      12.278  -4.180  -8.691  0.00  0.00     0.051 C 
BRANCH  38  41
ATOM     41  O   LIG d   1      10.672  -4.615 -10.351  0.00  0.00    -0.386 OA
ATOM     42  H   LIG d   1      10.558  -5.337 -10.993  0.00  0.00     0.211 HD
ENDBRANCH  38  41
ENDBRANCH  33  38
ENDBRANCH  31  32
ENDBRANCH  30  31
ENDBRANCH   1  30
TORSDOF 13
ENDMDL
MODEL 2
REMARK VINA RESULT:      -9.0      1.578      5.697
REMARK  13 active torsions:
REMARK  status: ('A' for Active; 'I' for Inactive)
REMARK    1  A    between atoms: S_2  and  C_10 
REMARK    2  A    between atoms: S_2  and  C_13 
REMARK    3  A    between atoms: O_5  and  C_23 
REMARK    4  A    between atoms: C_7  and  C_10 
REMARK    5  A    between atoms: C_7  and  C_11 
REMARK    6  A    between atoms: C_11  and  C_12 
REMARK    7  A    between atoms: C_13  and  C_15 
REMARK    8  A    between atoms: C_13  and  C_14 
REMARK    9  A    between atoms: C_14  and  C_16 
REMARK   10  A    between atoms: C_16  and  C_19 
REMARK   11  A    between atoms: C_20  and  C_23 
REMARK   12  A    between atoms: C_21  and  C_28 
REMARK   13  A    between atoms: C_32  and  C_33 
ROOT
ATOM      1  C   LIG d   1      14.683  -2.809  -7.589  0.00  0.00     0.080 C 
ENDROOT
BRANCH   1   2
ATOM      2  S   LIG d   1      13.117  -3.775  -7.580  0.00  0.00    -0.159 SA
BRANCH   2   3
ATOM      3  C   LIG d   1      13.550  -5.023  -8.837  0.00  0.00     0.084 C 
BRANCH   3   4
ATOM      4  C   LIG d   1      12.571  -4.956  -9.993  0.00  0.00    -0.022 A 
ATOM      5  C   LIG d   1      11.090  -5.026  -9.663  0.00  0.00     0.011 A 
ATOM      6  C   LIG d   1      11.752  -6.196 -10.322  0.00  0.00     0.011 A 
BRANCH   4   7
ATOM      7  C   LIG d   1      12.970  -4.030 -11.140  0.00  0.00     0.123 C 
BRANCH   7   8
ATOM      8  C   LIG d   1      12.032  -2.823 -11.307  0.00  0.00     0.173 C 
ATOM      9  O   LIG d   1      12.192  -1.891 -10.466  0.00  0.00    -0.648 OA
ATOM     10  O   LIG d   1      11.215  -2.903 -12.267  0.00  0.00    -0.648 OA
ENDBRANCH   7   8
ENDBRANCH   4   7
ENDBRANCH   3   4
ENDBRANCH   2   3
ENDBRANCH   1   2
BRANCH   1  11
ATOM     11  C   LIG d   1      14.583  -1.562  -6.720  0.00  0.00    -0.043 A 
ATOM     12  C   LIG d   1      15.592  -0.581  -6.717  0.00  0.00     0.019 A 
ATOM     13  C   LIG d   1      15.511   0.553  -5.897  0.00  0.00    -0.036 A 
ATOM     14  C   LIG d   1      14.384   0.722  -5.088  0.00  0.00     0.011 A 
ATOM     15  C   LIG d   1      13.361  -0.229  -5.097  0.00  0.00     0.001 A 
ATOM     16  C   LIG d   1      13.463  -1.365  -5.901  0.00  0.00     0.008 A 
BRANCH  13  17
ATOM     17  C   LIG d   1      16.672   1.452  -5.842  0.00  0.00     0.014 C 
ATOM     18  C   LIG d   1      16.625   2.787  -5.987  0.00  0.00     0.032 C 
BRANCH  18  19
ATOM     19  C   LIG d   1      17.786   3.680  -5.883  0.00  0.00     0.057 A 
ATOM     20  N   LIG d   1      17.635   4.692  -4.994  0.00  0.00    -0.248 NA
ATOM     21  C   LIG d   1      18.651   5.552  -4.815  0.00  0.00     0.069 A 
ATOM     22  C   LIG d   1      19.863   5.452  -5.531  0.00  0.00    -0.007 A 
ATOM     23  C   LIG d   1      18.515   6.577  -3.890  0.00  0.00     0.056 A 
ATOM     24  C   LIG d   1      19.986   4.420  -6.464  0.00  0.00     0.016 A 
ATOM     25  C   LIG d   1      20.903   6.369  -5.305  0.00  0.00     0.015 A 
ATOM     26  C   LIG d   1      18.935   3.527  -6.647  0.00  0.00     0.032 A 
ATOM     27  C   LIG d   1      20.745   7.388  -4.369  0.00  0.00     0.025 A 
ATOM     28  C   LIG d   1      19.549   7.487  -3.666  0.00  0.00     0.036 A 
ATOM     29 CL   LIG d   1      19.344   8.745  -2.510  0.00  0.00    -0.084 Cl
ENDBRANCH  18  19
ENDBRANCH  13  17
ENDBRANCH   1  11
BRANCH   1  30
ATOM     30  C   LIG d   1      15.836  -3.734  -7.147  0.00  0.00     0.025 C 
BRANCH  30  31
ATOM     31  C   LIG d   1      15.441  -4.607  -5.941  0.00  0.00     0.040 C 
BRANCH  31  32
ATOM     32  C   LIG d   1      16.338  -4.390  -4.736  0.00  0.00    -0.049 A 
ATOM     33  C   LIG d   1      17.446  -5.201  -4.374  0.00  0.00    -0.019 A 
ATOM     34  C   LIG d   1      18.217  -4.775  -3.262  0.00  0.00     0.011 A 
ATOM     35  C   LIG d   1      17.893  -3.645  -2.508  0.00  0.00     0.001 A 
ATOM     36  C   LIG d   1      16.782  -2.891  -2.843  0.00  0.00     0.001 A 
ATOM     37  C   LIG d   1      16.020  -3.258  -3.945  0.00  0.00     0.007 A 
BRANCH  33  38
ATOM     38  C   LIG d   1      17.867  -6.494  -5.097  0.00  0.00     0.078 C 
ATOM     39  C   LIG d   1      18.273  -6.262  -6.562  0.00  0.00     0.051 C 
ATOM     40  C   LIG d   1      18.933  -7.278  -4.325  0.00  0.00     0.051 C 
BRANCH  38  41
ATOM     41  O   LIG d   1      16.746  -7.406  -5.178  0.00  0.00    -0.386 OA
ATOM     42  H   LIG d   1      15.993  -6.892  -5.515  0.00  0.00     0.211 HD
ENDBRANCH  38  41
ENDBRANCH  33  38
ENDBRANCH  31  32
ENDBRANCH  30  31
ENDBRANCH   1  30
TORSDOF 13
ENDMDL
MODEL 3
REMARK VINA RESULT:      -8.7      1.263      1.666
REMARK  13 active torsions:
REMARK  status: ('A' for Active; 'I' for Inactive)
REMARK    1  A    between atoms: S_2  and  C_10 
REMARK    2  A    between atoms: S_2  and  C_13 
REMARK    3  A    between atoms: O_5  and  C_23 
REMARK    4  A    between atoms: C_7  and  C_10 
REMARK    5  A    between atoms: C_7  and  C_11 
REMARK    6  A    between atoms: C_11  and  C_12 
REMARK    7  A    between atoms: C_13  and  C_15 
REMARK    8  A    between atoms: C_13  and  C_14 
REMARK    9  A    between atoms: C_14  and  C_16 
REMARK   10  A    between atoms: C_16  and  C_19 
REMARK   11  A    between atoms: C_20  and  C_23 
REMARK   12  A    between atoms: C_21  and  C_28 
REMARK   13  A    between atoms: C_32  and  C_33 
ROOT
ATOM      1  C   LIG d   1      14.218  -2.430  -7.898  0.00  0.00     0.080 C 
ENDROOT
BRANCH   1   2
ATOM      2  S   LIG d   1      14.576  -4.078  -7.163  0.00  0.00    -0.159 SA
BRANCH   2   3
ATOM      3  C   LIG d   1      16.372  -3.889  -6.911  0.00  0.00     0.084 C 
BRANCH   3   4
ATOM      4  C   LIG d   1      16.710  -4.060  -5.443  0.00  0.00    -0.022 A 
ATOM      5  C   LIG d   1      15.701  -3.552  -4.427  0.00  0.00     0.011 A 
ATOM      6  C   LIG d   1      16.991  -2.814  -4.615  0.00  0.00     0.011 A 
BRANCH   4   7
ATOM      7  C   LIG d   1      17.448  -5.348  -5.083  0.00  0.00     0.123 C 
BRANCH   7   8
ATOM      8  C   LIG d   1      16.691  -6.621  -5.491  0.00  0.00     0.173 C 
ATOM      9  O   LIG d   1      15.692  -6.913  -4.771  0.00  0.00    -0.648 OA
ATOM     10  O   LIG d   1      17.152  -7.224  -6.500  0.00  0.00    -0.648 OA
ENDBRANCH   7   8
ENDBRANCH   4   7
ENDBRANCH   3   4
ENDBRANCH   2   3
ENDBRANCH   1   2
BRANCH   1  11
ATOM     11  C   LIG d   1      14.298  -1.318  -6.860  0.00  0.00    -0.043 A 
ATOM     12  C   LIG d   1      15.337  -0.370  -6.872  0.00  0.00     0.019 A 
ATOM     13  C   LIG d   1      15.424   0.637  -5.900  0.00  0.00    -0.036 A 
ATOM     14  C   LIG d   1      14.434   0.712  -4.917  0.00  0.00     0.011 A 
ATOM     15  C   LIG d   1      13.381  -0.205  -4.905  0.00  0.00     0.001 A 
ATOM     16  C   LIG d   1      13.317  -1.217  -5.864  0.00  0.00     0.008 A 
BRANCH  13  17
ATOM     17  C   LIG d   1      16.618   1.494  -5.896  0.00  0.00     0.014 C 
ATOM     18  C   LIG d   1      16.606   2.837  -5.917  0.00  0.00     0.032 C 
BRANCH  18  19
ATOM     19  C   LIG d   1      17.805   3.684  -5.864  0.00  0.00     0.057 A 
ATOM     20  N   LIG d   1      17.709   4.736  -5.015  0.00  0.00    -0.248 NA
ATOM     21  C   LIG d   1      18.762   5.559  -4.883  0.00  0.00     0.069 A 
ATOM     22  C   LIG d   1      19.959   5.380  -5.610  0.00  0.00    -0.007 A 
ATOM     23  C   LIG d   1      18.683   6.625  -4.000  0.00  0.00     0.056 A 
ATOM     24  C   LIG d   1      20.026   4.306  -6.502  0.00  0.00     0.016 A 
ATOM     25  C   LIG d   1      21.039   6.259  -5.435  0.00  0.00     0.015 A 
ATOM     26  C   LIG d   1      18.936   3.452  -6.635  0.00  0.00     0.032 A 
ATOM     27  C   LIG d   1      20.937   7.321  -4.539  0.00  0.00     0.025 A 
ATOM     28  C   LIG d   1      19.756   7.499  -3.826  0.00  0.00     0.036 A 
ATOM     29 CL   LIG d   1      19.620   8.810  -2.720  0.00  0.00    -0.084 Cl
ENDBRANCH  18  19
ENDBRANCH  13  17
ENDBRANCH   1  11
BRANCH   1  30
ATOM     30  C   LIG d   1      15.186  -2.195  -9.077  0.00  0.00     0.025 C 
BRANCH  30  31
ATOM     31  C   LIG d   1      14.987  -3.231 -10.198  0.00  0.00     0.040 C 
BRANCH  31  32
ATOM     32  C   LIG d   1      13.809  -2.907 -11.099  0.00  0.00    -0.049 A 
ATOM     33  C   LIG d   1      12.644  -3.704 -11.252  0.00  0.00    -0.019 A 
ATOM     34  C   LIG d   1      11.612  -3.179 -12.073  0.00  0.00     0.011 A 
ATOM     35  C   LIG d   1      11.731  -1.965 -12.752  0.00  0.00     0.001 A 
ATOM     36  C   LIG d   1      12.892  -1.222 -12.631  0.00  0.00     0.001 A 
ATOM     37  C   LIG d   1      13.914  -1.688 -11.812  0.00  0.00     0.007 A 
BRANCH  33  38
ATOM     38  C   LIG d   1      12.422  -5.080 -10.597  0.00  0.00     0.078 C 
ATOM     39  C   LIG d   1      11.716  -4.991  -9.233  0.00  0.00     0.051 C 
ATOM     40  C   LIG d   1      11.731  -6.073 -11.536  0.00  0.00     0.051 C 
BRANCH  38  41
ATOM     41  O   LIG d   1      13.695  -5.701 -10.299  0.00  0.00    -0.386 OA
ATOM     42  H   LIG d   1      14.353  -4.985 -10.271  0.00  0.00     0.211 HD
ENDBRANCH  38  41
ENDBRANCH  33  38
ENDBRANCH  31  32
ENDBRANCH  30  31
ENDBRANCH   1  30
TORSDOF 13
ENDMDL
MODEL 4
REMARK VINA RESULT:      -8.2      1.871      3.116
REMARK  13 active torsions:
REMARK  status: ('A' for Active; 'I' for Inactive)
REMARK    1  A    between atoms: S_2  and  C_10 
REMARK    2  A    between atoms: S_2  and  C_13 
REMARK    3  A    between atoms: O_5  and  C_23 
REMARK    4  A    between atoms: C_7  and  C_10 
REMARK    5  A    between atoms: C_7  and  C_11 
REMARK    6  A    between atoms: C_11  and  C_12 
REMARK    7  A    between atoms: C_13  and  C_15 
REMARK    8  A    between atoms: C_13  and  C_14 
REMARK    9  A    between atoms: C_14  and  C_16 
REMARK   10  A    between atoms: C_16  and  C_19 
REMARK   11  A    between atoms: C_20  and  C_23 
REMARK   12  A    between atoms: C_21  and  C_28 
REMARK   13  A    between atoms: C_32  and  C_33 
ROOT
ATOM      1  C   LIG d   1      15.315  -1.532  -7.338  0.00  0.00     0.080 C 
ENDROOT
BRANCH   1   2
ATOM      2  S   LIG d   1      15.045  -2.146  -5.625  0.00  0.00    -0.159 SA
BRANCH   2   3
ATOM      3  C   LIG d   1      14.833  -3.919  -5.993  0.00  0.00     0.084 C 
BRANCH   3   4
ATOM      4  C   LIG d   1      16.054  -4.693  -5.537  0.00  0.00    -0.022 A 
ATOM      5  C   LIG d   1      17.416  -4.065  -5.784  0.00  0.00     0.011 A 
ATOM      6  C   LIG d   1      16.995  -5.252  -6.595  0.00  0.00     0.011 A 
BRANCH   4   7
ATOM      7  C   LIG d   1      15.890  -5.472  -4.233  0.00  0.00     0.123 C 
BRANCH   7   8
ATOM      8  C   LIG d   1      16.664  -4.861  -3.054  0.00  0.00     0.173 C 
ATOM      9  O   LIG d   1      16.101  -3.883  -2.483  0.00  0.00    -0.648 OA
ATOM     10  O   LIG d   1      17.770  -5.412  -2.791  0.00  0.00    -0.648 OA
ENDBRANCH   7   8
ENDBRANCH   4   7
ENDBRANCH   3   4
ENDBRANCH   2   3
ENDBRANCH   1   2
BRANCH   1  11
ATOM     11  C   LIG d   1      16.728  -0.994  -7.530  0.00  0.00    -0.043 A 
ATOM     12  C   LIG d   1      17.198   0.119  -6.811  0.00  0.00     0.019 A 
ATOM     13  C   LIG d   1      18.489   0.629  -7.009  0.00  0.00    -0.036 A 
ATOM     14  C   LIG d   1      19.333  -0.008  -7.922  0.00  0.00     0.011 A 
ATOM     15  C   LIG d   1      18.892  -1.130  -8.626  0.00  0.00     0.001 A 
ATOM     16  C   LIG d   1      17.597  -1.615  -8.438  0.00  0.00     0.008 A 
BRANCH  13  17
ATOM     17  C   LIG d   1      18.851   1.881  -6.329  0.00  0.00     0.014 C 
ATOM     18  C   LIG d   1      18.008   2.896  -6.078  0.00  0.00     0.032 C 
BRANCH  18  19
ATOM     19  C   LIG d   1      18.370   4.123  -5.355  0.00  0.00     0.057 A 
ATOM     20  N   LIG d   1      19.675   4.197  -4.998  0.00  0.00    -0.248 NA
ATOM     21  C   LIG d   1      20.107   5.291  -4.349  0.00  0.00     0.069 A 
ATOM     22  C   LIG d   1      19.248   6.357  -4.007  0.00  0.00    -0.007 A 
ATOM     23  C   LIG d   1      21.446   5.387  -4.000  0.00  0.00     0.056 A 
ATOM     24  C   LIG d   1      17.900   6.246  -4.357  0.00  0.00     0.016 A 
ATOM     25  C   LIG d   1      19.744   7.486  -3.335  0.00  0.00     0.015 A 
ATOM     26  C   LIG d   1      17.454   5.116  -5.033  0.00  0.00     0.032 A 
ATOM     27  C   LIG d   1      21.093   7.561  -2.998  0.00  0.00     0.025 A 
ATOM     28  C   LIG d   1      21.938   6.508  -3.333  0.00  0.00     0.036 A 
ATOM     29 CL   LIG d   1      23.606   6.592  -2.918  0.00  0.00    -0.084 Cl
ENDBRANCH  18  19
ENDBRANCH  13  17
ENDBRANCH   1  11
BRANCH   1  30
ATOM     30  C   LIG d   1      14.987  -2.669  -8.327  0.00  0.00     0.025 C 
BRANCH  30  31
ATOM     31  C   LIG d   1      14.162  -2.167  -9.527  0.00  0.00     0.040 C 
BRANCH  31  32
ATOM     32  C   LIG d   1      13.054  -3.124  -9.924  0.00  0.00    -0.049 A 
ATOM     33  C   LIG d   1      12.576  -3.333 -11.245  0.00  0.00    -0.019 A 
ATOM     34  C   LIG d   1      11.596  -4.343 -11.420  0.00  0.00     0.011 A 
ATOM     35  C   LIG d   1      11.067  -5.075 -10.355  0.00  0.00     0.001 A 
ATOM     36  C   LIG d   1      11.508  -4.828  -9.067  0.00  0.00     0.001 A 
ATOM     37  C   LIG d   1      12.490  -3.868  -8.858  0.00  0.00     0.007 A 
BRANCH  33  38
ATOM     38  C   LIG d   1      13.044  -2.551 -12.487  0.00  0.00     0.078 C 
ATOM     39  C   LIG d   1      12.532  -3.153 -13.806  0.00  0.00     0.051 C 
ATOM     40  C   LIG d   1      12.744  -1.053 -12.386  0.00  0.00     0.051 C 
BRANCH  38  41
ATOM     41  O   LIG d   1      14.486  -2.616 -12.602  0.00  0.00    -0.386 OA
ATOM     42  H   LIG d   1      14.770  -1.778 -13.006  0.00  0.00     0.211 HD
ENDBRANCH  38  41
ENDBRANCH  33  38
ENDBRANCH  31  32
ENDBRANCH  30  31
ENDBRANCH   1  30
TORSDOF 13
ENDMDL
MODEL 5
REMARK VINA RESULT:      -8.1      1.954      6.130
REMARK  13 active torsions:
REMARK  status: ('A' for Active; 'I' for Inactive)
REMARK    1  A    between atoms: S_2  and  C_10 
REMARK    2  A    between atoms: S_2  and  C_13 
REMARK    3  A    between atoms: O_5  and  C_23 
REMARK    4  A    between atoms: C_7  and  C_10 
REMARK    5  A    between atoms: C_7  and  C_11 
REMARK    6  A    between atoms: C_11  and  C_12 
REMARK    7  A    between atoms: C_13  and  C_15 
REMARK    8  A    between atoms: C_13  and  C_14 
REMARK    9  A    between atoms: C_14  and  C_16 
REMARK   10  A    between atoms: C_16  and  C_19 
REMARK   11  A    between atoms: C_20  and  C_23 
REMARK   12  A    between atoms: C_21  and  C_28 
REMARK   13  A    between atoms: C_32  and  C_33 
ROOT
ATOM      1  C   LIG d   1      15.504  -2.144  -7.803  0.00  0.00     0.080 C 
ENDROOT
BRANCH   1   2
ATOM      2  S   LIG d   1      14.043  -3.062  -8.442  0.00  0.00    -0.159 SA
BRANCH   2   3
ATOM      3  C   LIG d   1      14.130  -2.547 -10.189  0.00  0.00     0.084 C 
BRANCH   3   4
ATOM      4  C   LIG d   1      12.823  -2.863 -10.889  0.00  0.00    -0.022 A 
ATOM      5  C   LIG d   1      12.030  -4.059 -10.388  0.00  0.00     0.011 A 
ATOM      6  C   LIG d   1      12.730  -4.142 -11.709  0.00  0.00     0.011 A 
BRANCH   4   7
ATOM      7  C   LIG d   1      12.012  -1.652 -11.347  0.00  0.00     0.123 C 
BRANCH   7   8
ATOM      8  C   LIG d   1      12.321  -1.220 -12.789  0.00  0.00     0.173 C 
ATOM      9  O   LIG d   1      11.472  -1.577 -13.657  0.00  0.00    -0.648 OA
ATOM     10  O   LIG d   1      13.384  -0.553 -12.937  0.00  0.00    -0.648 OA
ENDBRANCH   7   8
ENDBRANCH   4   7
ENDBRANCH   3   4
ENDBRANCH   2   3
ENDBRANCH   1   2
BRANCH   1  11
ATOM     11  C   LIG d   1      15.099  -1.045  -6.827  0.00  0.00    -0.043 A 
ATOM     12  C   LIG d   1      15.839   0.145  -6.708  0.00  0.00     0.019 A 
ATOM     13  C   LIG d   1      15.481   1.143  -5.791  0.00  0.00    -0.036 A 
ATOM     14  C   LIG d   1      14.343   0.956  -5.001  0.00  0.00     0.011 A 
ATOM     15  C   LIG d   1      13.583  -0.208  -5.125  0.00  0.00     0.001 A 
ATOM     16  C   LIG d   1      13.961  -1.205  -6.025  0.00  0.00     0.008 A 
BRANCH  13  17
ATOM     17  C   LIG d   1      16.388   2.287  -5.623  0.00  0.00     0.014 C 
ATOM     18  C   LIG d   1      17.580   2.424  -6.226  0.00  0.00     0.032 C 
BRANCH  18  19
ATOM     19  C   LIG d   1      18.457   3.594  -6.088  0.00  0.00     0.057 A 
ATOM     20  N   LIG d   1      19.457   3.440  -5.185  0.00  0.00    -0.248 NA
ATOM     21  C   LIG d   1      20.323   4.450  -5.001  0.00  0.00     0.069 A 
ATOM     22  C   LIG d   1      20.220   5.673  -5.699  0.00  0.00    -0.007 A 
ATOM     23  C   LIG d   1      21.363   4.294  -4.098  0.00  0.00     0.056 A 
ATOM     24  C   LIG d   1      19.164   5.822  -6.602  0.00  0.00     0.016 A 
ATOM     25  C   LIG d   1      21.153   6.699  -5.481  0.00  0.00     0.015 A 
ATOM     26  C   LIG d   1      18.270   4.774  -6.795  0.00  0.00     0.032 A 
ATOM     27  C   LIG d   1      22.192   6.518  -4.571  0.00  0.00     0.025 A 
ATOM     28  C   LIG d   1      22.290   5.314  -3.882  0.00  0.00     0.036 A 
ATOM     29 CL   LIG d   1      23.569   5.082  -2.753  0.00  0.00    -0.084 Cl
ENDBRANCH  18  19
ENDBRANCH  13  17
ENDBRANCH   1  11
BRANCH   1  30
ATOM     30  C   LIG d   1      16.482  -3.153  -7.168  0.00  0.00     0.025 C 
BRANCH  30  31
ATOM     31  C   LIG d   1      15.762  -4.140  -6.231  0.00  0.00     0.040 C 
BRANCH  31  32
ATOM     32  C   LIG d   1      16.398  -4.219  -4.855  0.00  0.00    -0.049 A 
ATOM     33  C   LIG d   1      17.267  -5.248  -4.406  0.00  0.00    -0.019 A 
ATOM     34  C   LIG d   1      17.833  -5.091  -3.114  0.00  0.00     0.011 A 
ATOM     35  C   LIG d   1      17.525  -4.012  -2.282  0.00  0.00     0.001 A 
ATOM     36  C   LIG d   1      16.640  -3.041  -2.715  0.00  0.00     0.001 A 
ATOM     37  C   LIG d   1      16.088  -3.144  -3.986  0.00  0.00     0.007 A 
BRANCH  33  38
ATOM     38  C   LIG d   1      17.636  -6.507  -5.212  0.00  0.00     0.078 C 
ATOM     39  C   LIG d   1      16.408  -7.277  -5.725  0.00  0.00     0.051 C 
ATOM     40  C   LIG d   1      18.638  -6.214  -6.333  0.00  0.00     0.051 C 
BRANCH  38  41
ATOM     41  O   LIG d   1      18.323  -7.457  -4.363  0.00  0.00    -0.386 OA
ATOM     42  H   LIG d   1      17.663  -7.795  -3.733  0.00  0.00     0.211 HD
ENDBRANCH  38  41
ENDBRANCH  33  38
ENDBRANCH  31  32
ENDBRANCH  30  31
ENDBRANCH   1  30
TORSDOF 13
ENDMDL
MODEL 6
REMARK VINA RESULT:      -8.0     29.269     33.556
REMARK  13 active torsions:
REMARK  status: ('A' for Active; 'I' for Inactive)
REMARK    1  A    between atoms: S_2  and  C_10 
REMARK    2  A    between atoms: S_2  and  C_13 
REMARK    3  A    between atoms: O_5  and  C_23 
REMARK    4  A    between atoms: C_7  and  C_10 
REMARK    5  A    between atoms: C_7  and  C_11 
REMARK    6  A    between atoms: C_11  and  C_12 
REMARK    7  A    between atoms: C_13  and  C_15 
REMARK    8  A    between atoms: C_13  and  C_14 
REMARK    9  A    between atoms: C_14  and  C_16 
REMARK   10  A    between atoms: C_16  and  C_19 
REMARK   11  A    between atoms: C_20  and  C_23 
REMARK   12  A    between atoms: C_21  and  C_28 
REMARK   13  A    between atoms: C_32  and  C_33 
ROOT
ATOM      1  C   LIG d   1       8.548  -1.931  24.037  0.00  0.00     0.080 C 
ENDROOT
BRANCH   1   2
ATOM      2  S   LIG d   1       9.519  -2.227  22.502  0.00  0.00    -0.159 SA
BRANCH   2   3
ATOM      3  C   LIG d   1       8.210  -1.901  21.275  0.00  0.00     0.084 C 
BRANCH   3   4
ATOM      4  C   LIG d   1       8.681  -0.860  20.279  0.00  0.00    -0.022 A 
ATOM      5  C   LIG d   1       9.818   0.055  20.704  0.00  0.00     0.011 A 
ATOM      6  C   LIG d   1       8.430   0.609  20.593  0.00  0.00     0.011 A 
BRANCH   4   7
ATOM      7  C   LIG d   1       8.669  -1.297  18.816  0.00  0.00     0.123 C 
BRANCH   7   8
ATOM      8  C   LIG d   1       7.255  -1.432  18.229  0.00  0.00     0.173 C 
ATOM      9  O   LIG d   1       6.669  -2.528  18.470  0.00  0.00    -0.648 OA
ATOM     10  O   LIG d   1       6.842  -0.430  17.579  0.00  0.00    -0.648 OA
ENDBRANCH   7   8
ENDBRANCH   4   7
ENDBRANCH   3   4
ENDBRANCH   2   3
ENDBRANCH   1   2
BRANCH   1  11
ATOM     11  C   LIG d   1       8.301  -3.222  24.808  0.00  0.00    -0.043 A 
ATOM     12  C   LIG d   1       7.418  -4.208  24.333  0.00  0.00     0.019 A 
ATOM     13  C   LIG d   1       7.171  -5.384  25.056  0.00  0.00    -0.036 A 
ATOM     14  C   LIG d   1       7.845  -5.586  26.264  0.00  0.00     0.011 A 
ATOM     15  C   LIG d   1       8.745  -4.630  26.737  0.00  0.00     0.001 A 
ATOM     16  C   LIG d   1       8.966  -3.453  26.019  0.00  0.00     0.008 A 
BRANCH  13  17
ATOM     17  C   LIG d   1       6.126  -6.293  24.565  0.00  0.00     0.014 C 
ATOM     18  C   LIG d   1       4.866  -6.345  25.029  0.00  0.00     0.032 C 
BRANCH  18  19
ATOM     19  C   LIG d   1       3.816  -7.225  24.498  0.00  0.00     0.057 A 
ATOM     20  N   LIG d   1       3.595  -8.339  25.237  0.00  0.00    -0.248 NA
ATOM     21  C   LIG d   1       2.640  -9.197  24.842  0.00  0.00     0.069 A 
ATOM     22  C   LIG d   1       1.872  -8.991  23.676  0.00  0.00    -0.007 A 
ATOM     23  C   LIG d   1       2.389 -10.328  25.603  0.00  0.00     0.056 A 
ATOM     24  C   LIG d   1       2.138  -7.852  22.912  0.00  0.00     0.016 A 
ATOM     25  C   LIG d   1       0.877  -9.911  23.304  0.00  0.00     0.015 A 
ATOM     26  C   LIG d   1       3.124  -6.961  23.324  0.00  0.00     0.032 A 
ATOM     27  C   LIG d   1       0.641 -11.038  24.087  0.00  0.00     0.025 A 
ATOM     28  C   LIG d   1       1.401 -11.241  25.235  0.00  0.00     0.036 A 
ATOM     29 CL   LIG d   1       1.118 -12.634  26.206  0.00  0.00    -0.084 Cl
ENDBRANCH  18  19
ENDBRANCH  13  17
ENDBRANCH   1  11
BRANCH   1  30
ATOM     30  C   LIG d   1       9.283  -0.877  24.890  0.00  0.00     0.025 C 
BRANCH  30  31
ATOM     31  C   LIG d   1      10.762  -0.740  24.485  0.00  0.00     0.040 C 
BRANCH  31  32
ATOM     32  C   LIG d   1      11.104   0.640  23.955  0.00  0.00    -0.049 A 
ATOM     33  C   LIG d   1      12.288   0.985  23.252  0.00  0.00    -0.019 A 
ATOM     34  C   LIG d   1      12.377   2.311  22.756  0.00  0.00     0.011 A 
ATOM     35  C   LIG d   1      11.386   3.269  22.981  0.00  0.00     0.001 A 
ATOM     36  C   LIG d   1      10.259   2.932  23.709  0.00  0.00     0.001 A 
ATOM     37  C   LIG d   1      10.120   1.634  24.185  0.00  0.00     0.007 A 
BRANCH  33  38
ATOM     38  C   LIG d   1      13.469   0.031  22.990  0.00  0.00     0.078 C 
ATOM     39  C   LIG d   1      14.089  -0.531  24.280  0.00  0.00     0.051 C 
ATOM     40  C   LIG d   1      13.119  -1.077  21.992  0.00  0.00     0.051 C 
BRANCH  38  41
ATOM     41  O   LIG d   1      14.556   0.747  22.356  0.00  0.00    -0.386 OA
ATOM     42  H   LIG d   1      14.984   0.121  21.747  0.00  0.00     0.211 HD
ENDBRANCH  38  41
ENDBRANCH  33  38
ENDBRANCH  31  32
ENDBRANCH  30  31
ENDBRANCH   1  30
TORSDOF 13
ENDMDL
MODEL 7
REMARK VINA RESULT:      -8.0      1.461      5.867
REMARK  13 active torsions:
REMARK  status: ('A' for Active; 'I' for Inactive)
REMARK    1  A    between atoms: S_2  and  C_10 
REMARK    2  A    between atoms: S_2  and  C_13 
REMARK    3  A    between atoms: O_5  and  C_23 
REMARK    4  A    between atoms: C_7  and  C_10 
REMARK    5  A    between atoms: C_7  and  C_11 
REMARK    6  A    between atoms: C_11  and  C_12 
REMARK    7  A    between atoms: C_13  and  C_15 
REMARK    8  A    between atoms: C_13  and  C_14 
REMARK    9  A    between atoms: C_14  and  C_16 
REMARK   10  A    between atoms: C_16  and  C_19 
REMARK   11  A    between atoms: C_20  and  C_23 
REMARK   12  A    between atoms: C_21  and  C_28 
REMARK   13  A    between atoms: C_32  and  C_33 
ROOT
ATOM      1  C   LIG d   1      15.378  -2.279  -7.682  0.00  0.00     0.080 C 
ENDROOT
BRANCH   1   2
ATOM      2  S   LIG d   1      13.940  -3.381  -8.001  0.00  0.00    -0.159 SA
BRANCH   2   3
ATOM      3  C   LIG d   1      13.450  -2.738  -9.635  0.00  0.00     0.084 C 
BRANCH   3   4
ATOM      4  C   LIG d   1      13.911  -3.686 -10.724  0.00  0.00    -0.022 A 
ATOM      5  C   LIG d   1      15.320  -4.245 -10.619  0.00  0.00     0.011 A 
ATOM      6  C   LIG d   1      15.010  -3.224 -11.670  0.00  0.00     0.011 A 
BRANCH   4   7
ATOM      7  C   LIG d   1      12.842  -4.633 -11.268  0.00  0.00     0.123 C 
BRANCH   7   8
ATOM      8  C   LIG d   1      11.408  -4.198 -10.924  0.00  0.00     0.173 C 
ATOM      9  O   LIG d   1      10.907  -3.325 -11.692  0.00  0.00    -0.648 OA
ATOM     10  O   LIG d   1      10.897  -4.768  -9.920  0.00  0.00    -0.648 OA
ENDBRANCH   7   8
ENDBRANCH   4   7
ENDBRANCH   3   4
ENDBRANCH   2   3
ENDBRANCH   1   2
BRANCH   1  11
ATOM     11  C   LIG d   1      15.011  -1.122  -6.761  0.00  0.00    -0.043 A 
ATOM     12  C   LIG d   1      15.825   0.020  -6.649  0.00  0.00     0.019 A 
ATOM     13  C   LIG d   1      15.500   1.072  -5.781  0.00  0.00    -0.036 A 
ATOM     14  C   LIG d   1      14.322   0.990  -5.034  0.00  0.00     0.011 A 
ATOM     15  C   LIG d   1      13.489  -0.124  -5.152  0.00  0.00     0.001 A 
ATOM     16  C   LIG d   1      13.834  -1.175  -6.003  0.00  0.00     0.008 A 
BRANCH  13  17
ATOM     17  C   LIG d   1      16.476   2.158  -5.613  0.00  0.00     0.014 C 
ATOM     18  C   LIG d   1      17.706   2.182  -6.152  0.00  0.00     0.032 C 
BRANCH  18  19
ATOM     19  C   LIG d   1      18.656   3.295  -6.016  0.00  0.00     0.057 A 
ATOM     20  N   LIG d   1      18.279   4.245  -5.127  0.00  0.00    -0.248 NA
ATOM     21  C   LIG d   1      19.092   5.295  -4.919  0.00  0.00     0.069 A 
ATOM     22  C   LIG d   1      20.314   5.454  -5.606  0.00  0.00    -0.007 A 
ATOM     23  C   LIG d   1      18.727   6.261  -3.994  0.00  0.00     0.056 A 
ATOM     24  C   LIG d   1      20.669   4.478  -6.541  0.00  0.00     0.016 A 
ATOM     25  C   LIG d   1      21.137   6.563  -5.351  0.00  0.00     0.015 A 
ATOM     26  C   LIG d   1      19.829   3.390  -6.753  0.00  0.00     0.032 A 
ATOM     27  C   LIG d   1      20.751   7.519  -4.415  0.00  0.00     0.025 A 
ATOM     28  C   LIG d   1      19.545   7.362  -3.740  0.00  0.00     0.036 A 
ATOM     29 CL   LIG d   1      19.058   8.540  -2.584  0.00  0.00    -0.084 Cl
ENDBRANCH  18  19
ENDBRANCH  13  17
ENDBRANCH   1  11
BRANCH   1  30
ATOM     30  C   LIG d   1      16.534  -3.128  -7.116  0.00  0.00     0.025 C 
BRANCH  30  31
ATOM     31  C   LIG d   1      16.149  -3.812  -5.791  0.00  0.00     0.040 C 
BRANCH  31  32
ATOM     32  C   LIG d   1      17.015  -5.017  -5.475  0.00  0.00    -0.049 A 
ATOM     33  C   LIG d   1      17.923  -5.120  -4.388  0.00  0.00    -0.019 A 
ATOM     34  C   LIG d   1      18.571  -6.370  -4.210  0.00  0.00     0.011 A 
ATOM     35  C   LIG d   1      18.386  -7.447  -5.080  0.00  0.00     0.001 A 
ATOM     36  C   LIG d   1      17.535  -7.316  -6.163  0.00  0.00     0.001 A 
ATOM     37  C   LIG d   1      16.857  -6.118  -6.353  0.00  0.00     0.007 A 
BRANCH  33  38
ATOM     38  C   LIG d   1      18.248  -3.986  -3.398  0.00  0.00     0.078 C 
ATOM     39  C   LIG d   1      17.102  -3.700  -2.412  0.00  0.00     0.051 C 
ATOM     40  C   LIG d   1      19.583  -4.199  -2.679  0.00  0.00     0.051 C 
BRANCH  38  41
ATOM     41  O   LIG d   1      18.424  -2.739  -4.111  0.00  0.00    -0.386 OA
ATOM     42  H   LIG d   1      17.822  -2.096  -3.699  0.00  0.00     0.211 HD
ENDBRANCH  38  41
ENDBRANCH  33  38
ENDBRANCH  31  32
ENDBRANCH  30  31
ENDBRANCH   1  30
TORSDOF 13
ENDMDL
MODEL 8
REMARK VINA RESULT:      -8.0     29.535     33.740
REMARK  13 active torsions:
REMARK  status: ('A' for Active; 'I' for Inactive)
REMARK    1  A    between atoms: S_2  and  C_10 
REMARK    2  A    between atoms: S_2  and  C_13 
REMARK    3  A    between atoms: O_5  and  C_23 
REMARK    4  A    between atoms: C_7  and  C_10 
REMARK    5  A    between atoms: C_7  and  C_11 
REMARK    6  A    between atoms: C_11  and  C_12 
REMARK    7  A    between atoms: C_13  and  C_15 
REMARK    8  A    between atoms: C_13  and  C_14 
REMARK    9  A    between atoms: C_14  and  C_16 
REMARK   10  A    between atoms: C_16  and  C_19 
REMARK   11  A    between atoms: C_20  and  C_23 
REMARK   12  A    between atoms: C_21  and  C_28 
REMARK   13  A    between atoms: C_32  and  C_33 
ROOT
ATOM      1  C   LIG d   1       8.832  -2.268  24.420  0.00  0.00     0.080 C 
ENDROOT
BRANCH   1   2
ATOM      2  S   LIG d   1       8.975  -2.710  22.640  0.00  0.00    -0.159 SA
BRANCH   2   3
ATOM      3  C   LIG d   1       8.011  -1.334  21.930  0.00  0.00     0.084 C 
BRANCH   3   4
ATOM      4  C   LIG d   1       8.661  -0.852  20.648  0.00  0.00    -0.022 A 
ATOM      5  C   LIG d   1       9.884   0.041  20.773  0.00  0.00     0.011 A 
ATOM      6  C   LIG d   1       8.587   0.630  20.310  0.00  0.00     0.011 A 
BRANCH   4   7
ATOM      7  C   LIG d   1       8.667  -1.856  19.497  0.00  0.00     0.123 C 
BRANCH   7   8
ATOM      8  C   LIG d   1       7.342  -1.901  18.718  0.00  0.00     0.173 C 
ATOM      9  O   LIG d   1       7.255  -1.095  17.747  0.00  0.00    -0.648 OA
ATOM     10  O   LIG d   1       6.498  -2.743  19.137  0.00  0.00    -0.648 OA
ENDBRANCH   7   8
ENDBRANCH   4   7
ENDBRANCH   3   4
ENDBRANCH   2   3
ENDBRANCH   1   2
BRANCH   1  11
ATOM     11  C   LIG d   1       8.520  -3.485  25.282  0.00  0.00    -0.043 A 
ATOM     12  C   LIG d   1       7.538  -4.421  24.911  0.00  0.00     0.019 A 
ATOM     13  C   LIG d   1       7.234  -5.526  25.718  0.00  0.00    -0.036 A 
ATOM     14  C   LIG d   1       7.949  -5.711  26.905  0.00  0.00     0.011 A 
ATOM     15  C   LIG d   1       8.946  -4.806  27.276  0.00  0.00     0.001 A 
ATOM     16  C   LIG d   1       9.224  -3.697  26.475  0.00  0.00     0.008 A 
BRANCH  13  17
ATOM     17  C   LIG d   1       6.096  -6.372  25.334  0.00  0.00     0.014 C 
ATOM     18  C   LIG d   1       5.135  -6.027  24.461  0.00  0.00     0.032 C 
BRANCH  18  19
ATOM     19  C   LIG d   1       4.028  -6.900  24.049  0.00  0.00     0.057 A 
ATOM     20  N   LIG d   1       3.846  -7.984  24.842  0.00  0.00    -0.248 NA
ATOM     21  C   LIG d   1       2.845  -8.833  24.556  0.00  0.00     0.069 A 
ATOM     22  C   LIG d   1       1.988  -8.649  23.450  0.00  0.00    -0.007 A 
ATOM     23  C   LIG d   1       2.635  -9.932  25.375  0.00  0.00     0.056 A 
ATOM     24  C   LIG d   1       2.213  -7.542  22.628  0.00  0.00     0.016 A 
ATOM     25  C   LIG d   1       0.949  -9.558  23.193  0.00  0.00     0.015 A 
ATOM     26  C   LIG d   1       3.247  -6.661  22.927  0.00  0.00     0.032 A 
ATOM     27  C   LIG d   1       0.755 -10.653  24.032  0.00  0.00     0.025 A 
ATOM     28  C   LIG d   1       1.603 -10.835  25.120  0.00  0.00     0.036 A 
ATOM     29 CL   LIG d   1       1.373 -12.187  26.160  0.00  0.00    -0.084 Cl
ENDBRANCH  18  19
ENDBRANCH  13  17
ENDBRANCH   1  11
BRANCH   1  30
ATOM     30  C   LIG d   1      10.131  -1.562  24.859  0.00  0.00     0.025 C 
BRANCH  30  31
ATOM     31  C   LIG d   1       9.904  -0.066  25.145  0.00  0.00     0.040 C 
BRANCH  31  32
ATOM     32  C   LIG d   1      10.708   0.839  24.229  0.00  0.00    -0.049 A 
ATOM     33  C   LIG d   1      10.274   2.090  23.716  0.00  0.00    -0.019 A 
ATOM     34  C   LIG d   1      11.212   2.829  22.950  0.00  0.00     0.011 A 
ATOM     35  C   LIG d   1      12.490   2.349  22.654  0.00  0.00     0.001 A 
ATOM     36  C   LIG d   1      12.882   1.107  23.121  0.00  0.00     0.001 A 
ATOM     37  C   LIG d   1      12.002   0.366  23.901  0.00  0.00     0.007 A 
BRANCH  33  38
ATOM     38  C   LIG d   1       8.874   2.696  23.931  0.00  0.00     0.078 C 
ATOM     39  C   LIG d   1       8.719   3.384  25.298  0.00  0.00     0.051 C 
ATOM     40  C   LIG d   1       8.445   3.608  22.779  0.00  0.00     0.051 C 
BRANCH  38  41
ATOM     41  O   LIG d   1       7.875   1.648  23.945  0.00  0.00    -0.386 OA
ATOM     42  H   LIG d   1       7.271   1.850  24.680  0.00  0.00     0.211 HD
ENDBRANCH  38  41
ENDBRANCH  33  38
ENDBRANCH  31  32
ENDBRANCH  30  31
ENDBRANCH   1  30
TORSDOF 13
ENDMDL
MODEL 9
REMARK VINA RESULT:      -7.8      4.637     11.966
REMARK  13 active torsions:
REMARK  status: ('A' for Active; 'I' for Inactive)
REMARK    1  A    between atoms: S_2  and  C_10 
REMARK    2  A    between atoms: S_2  and  C_13 
REMARK    3  A    between atoms: O_5  and  C_23 
REMARK    4  A    between atoms: C_7  and  C_10 
REMARK    5  A    between atoms: C_7  and  C_11 
REMARK    6  A    between atoms: C_11  and  C_12 
REMARK    7  A    between atoms: C_13  and  C_15 
REMARK    8  A    between atoms: C_13  and  C_14 
REMARK    9  A    between atoms: C_14  and  C_16 
REMARK   10  A    between atoms: C_16  and  C_19 
REMARK   11  A    between atoms: C_20  and  C_23 
REMARK   12  A    between atoms: C_21  and  C_28 
REMARK   13  A    between atoms: C_32  and  C_33 
ROOT
ATOM      1  C   LIG d   1      21.686   5.485  -5.830  0.00  0.00     0.080 C 
ENDROOT
BRANCH   1   2
ATOM      2  S   LIG d   1      22.341   4.093  -4.820  0.00  0.00    -0.159 SA
BRANCH   2   3
ATOM      3  C   LIG d   1      23.307   3.240  -6.111  0.00  0.00     0.084 C 
BRANCH   3   4
ATOM      4  C   LIG d   1      22.457   2.174  -6.775  0.00  0.00    -0.022 A 
ATOM      5  C   LIG d   1      23.002   1.527  -8.036  0.00  0.00     0.011 A 
ATOM      6  C   LIG d   1      21.848   2.476  -8.136  0.00  0.00     0.011 A 
BRANCH   4   7
ATOM      7  C   LIG d   1      21.682   1.264  -5.823  0.00  0.00     0.123 C 
BRANCH   7   8
ATOM      8  C   LIG d   1      22.565   0.222  -5.119  0.00  0.00     0.173 C 
ATOM      9  O   LIG d   1      22.669  -0.892  -5.712  0.00  0.00    -0.648 OA
ATOM     10  O   LIG d   1      23.087   0.601  -4.033  0.00  0.00    -0.648 OA
ENDBRANCH   7   8
ENDBRANCH   4   7
ENDBRANCH   3   4
ENDBRANCH   2   3
ENDBRANCH   1   2
BRANCH   1  11
ATOM     11  C   LIG d   1      20.193   5.339  -6.094  0.00  0.00    -0.043 A 
ATOM     12  C   LIG d   1      19.515   4.130  -5.856  0.00  0.00     0.019 A 
ATOM     13  C   LIG d   1      18.146   3.990  -6.124  0.00  0.00    -0.036 A 
ATOM     14  C   LIG d   1      17.438   5.092  -6.611  0.00  0.00     0.011 A 
ATOM     15  C   LIG d   1      18.089   6.308  -6.828  0.00  0.00     0.001 A 
ATOM     16  C   LIG d   1      19.457   6.429  -6.579  0.00  0.00     0.008 A 
BRANCH  13  17
ATOM     17  C   LIG d   1      17.547   2.655  -5.989  0.00  0.00     0.014 C 
ATOM     18  C   LIG d   1      16.257   2.411  -5.704  0.00  0.00     0.032 C 
BRANCH  18  19
ATOM     19  C   LIG d   1      15.659   1.072  -5.619  0.00  0.00     0.057 A 
ATOM     20  N   LIG d   1      15.840   0.308  -6.723  0.00  0.00    -0.248 NA
ATOM     21  C   LIG d   1      15.345  -0.941  -6.733  0.00  0.00     0.069 A 
ATOM     22  C   LIG d   1      14.627  -1.480  -5.645  0.00  0.00    -0.007 A 
ATOM     23  C   LIG d   1      15.545  -1.739  -7.849  0.00  0.00     0.056 A 
ATOM     24  C   LIG d   1      14.425  -0.664  -4.528  0.00  0.00     0.016 A 
ATOM     25  C   LIG d   1      14.134  -2.794  -5.695  0.00  0.00     0.015 A 
ATOM     26  C   LIG d   1      14.941   0.627  -4.516  0.00  0.00     0.032 A 
ATOM     27  C   LIG d   1      14.350  -3.578  -6.826  0.00  0.00     0.025 A 
ATOM     28  C   LIG d   1      15.056  -3.044  -7.899  0.00  0.00     0.036 A 
ATOM     29 CL   LIG d   1      15.326  -4.006  -9.301  0.00  0.00    -0.084 Cl
ENDBRANCH  18  19
ENDBRANCH  13  17
ENDBRANCH   1  11
BRANCH   1  30
ATOM     30  C   LIG d   1      22.024   6.811  -5.119  0.00  0.00     0.025 C 
BRANCH  30  31
ATOM     31  C   LIG d   1      21.707   6.753  -3.613  0.00  0.00     0.040 C 
BRANCH  31  32
ATOM     32  C   LIG d   1      21.370   8.112  -3.027  0.00  0.00    -0.049 A 
ATOM     33  C   LIG d   1      22.189   8.851  -2.134  0.00  0.00    -0.019 A 
ATOM     34  C   LIG d   1      21.737  10.147  -1.773  0.00  0.00     0.011 A 
ATOM     35  C   LIG d   1      20.523  10.674  -2.218  0.00  0.00     0.001 A 
ATOM     36  C   LIG d   1      19.712   9.922  -3.051  0.00  0.00     0.001 A 
ATOM     37  C   LIG d   1      20.135   8.660  -3.451  0.00  0.00     0.007 A 
BRANCH  33  38
ATOM     38  C   LIG d   1      23.519   8.354  -1.536  0.00  0.00     0.078 C 
ATOM     39  C   LIG d   1      23.377   7.028  -0.771  0.00  0.00     0.051 C 
ATOM     40  C   LIG d   1      24.645   8.300  -2.573  0.00  0.00     0.051 C 
BRANCH  38  41
ATOM     41  O   LIG d   1      23.998   9.290  -0.542  0.00  0.00    -0.386 OA
ATOM     42  H   LIG d   1      23.552   9.062   0.292  0.00  0.00     0.211 HD
ENDBRANCH  38  41
ENDBRANCH  33  38
ENDBRANCH  31  32
ENDBRANCH  30  31
ENDBRANCH   1  30
TORSDOF 13
ENDMDL
