MODEL 1
REMARK VINA RESULT:      -8.8      0.000      0.000
REMARK  11 active torsions:
REMARK  status: ('A' for Active; 'I' for Inactive)
REMARK    1  A    between atoms: O_2  and  C_17 
REMARK    2  A    between atoms: O_2  and  C_19 
REMARK    3  A    between atoms: O_3  and  C_13 
REMARK    4  A    between atoms: O_4  and  C_14 
REMARK    5  A    between atoms: O_5  and  C_15 
REMARK    6  A    between atoms: O_6  and  C_18 
REMARK    7  A    between atoms: O_8  and  C_21 
REMARK    8  A    between atoms: O_11  and  C_30 
REMARK    9  A    between atoms: O_12  and  C_33 
REMARK   10  A    between atoms: C_16  and  C_18 
REMARK   11  A    between atoms: C_22  and  C_25 
ROOT
ATOM      1  C   UNK d   1       8.221  -0.370  23.590  0.00  0.00     0.106 A 
ATOM      2  C   UNK d   1       7.553  -1.470  24.164  0.00  0.00     0.054 A 
ATOM      3  C   UNK d   1       9.603  -0.453  23.350  0.00  0.00     0.101 A 
ATOM      4  C   UNK d   1       8.233  -2.638  24.559  0.00  0.00     0.001 A 
ATOM      5  C   UNK d   1      10.287  -1.613  23.714  0.00  0.00     0.040 A 
ATOM      6  C   UNK d   1       9.613  -2.681  24.317  0.00  0.00     0.017 A 
ENDROOT
BRANCH   1   7
ATOM      7  O   UNK d   1       7.614   0.818  23.245  0.00  0.00    -0.315 OA
BRANCH   7   8
ATOM      8  C   UNK d   1       6.534   0.772  22.308  0.00  0.00     0.299 C 
ATOM      9  O   UNK d   1       7.052   0.548  20.994  0.00  0.00    -0.340 OA
ATOM     10  C   UNK d   1       6.053   0.424  19.990  0.00  0.00     0.253 C 
ATOM     11  C   UNK d   1       5.220   1.704  19.900  0.00  0.00     0.189 C 
ATOM     12  C   UNK d   1       4.660   2.061  21.278  0.00  0.00     0.183 C 
ATOM     13  C   UNK d   1       5.763   2.110  22.342  0.00  0.00     0.205 C 
BRANCH  10  14
ATOM     14  C   UNK d   1       6.687   0.131  18.619  0.00  0.00     0.172 C 
ATOM     15  O   UNK d   1       7.826   0.423  18.292  0.00  0.00    -0.648 OA
BRANCH  14  16
ATOM     16  O   UNK d   1       5.864  -0.555  17.782  0.00  0.00    -0.774 OA
ATOM     17  H   UNK d   1       5.004  -0.093  17.638  0.00  0.00     0.167 HD
ENDBRANCH  14  16
ENDBRANCH  10  14
BRANCH  11  18
ATOM     18  O   UNK d   1       4.119   1.510  18.991  0.00  0.00    -0.390 OA
ATOM     19  H   UNK d   1       3.738   0.636  19.224  0.00  0.00     0.210 HD
ENDBRANCH  11  18
BRANCH  12  20
ATOM     20  O   UNK d   1       3.989   3.330  21.206  0.00  0.00    -0.390 OA
ATOM     21  H   UNK d   1       3.436   3.408  22.005  0.00  0.00     0.210 HD
ENDBRANCH  12  20
BRANCH  13  22
ATOM     22  O   UNK d   1       5.127   2.324  23.613  0.00  0.00    -0.388 OA
ATOM     23  H   UNK d   1       4.527   1.564  23.739  0.00  0.00     0.210 HD
ENDBRANCH  13  22
ENDBRANCH   7   8
ENDBRANCH   1   7
BRANCH   3  24
ATOM     24  O   UNK d   1      10.199   0.638  22.766  0.00  0.00    -0.353 OA
ATOM     25  C   UNK d   1      10.770   1.609  23.635  0.00  0.00     0.210 C 
ENDBRANCH   3  24
BRANCH   4  26
ATOM     26  C   UNK d   1       7.500  -3.759  25.222  0.00  0.00     0.090 A 
ATOM     27  O   UNK d   1       6.573  -4.407  24.412  0.00  0.00    -0.309 OA
ATOM     28  C   UNK d   1       5.844  -5.450  24.933  0.00  0.00     0.095 A 
ATOM     29  C   UNK d   1       5.967  -5.893  26.252  0.00  0.00     0.081 A 
ATOM     30  C   UNK d   1       4.944  -6.072  24.064  0.00  0.00     0.075 A 
ATOM     31  C   UNK d   1       6.934  -5.194  27.120  0.00  0.00     0.190 A 
ATOM     32  C   UNK d   1       5.179  -6.967  26.695  0.00  0.00     0.085 A 
ATOM     33  O   UNK d   1       7.130  -5.456  28.299  0.00  0.00    -0.287 OA
ATOM     34  C   UNK d   1       7.702  -4.101  26.501  0.00  0.00     0.094 A 
ATOM     35  C   UNK d   1       4.278  -7.591  25.828  0.00  0.00     0.074 A 
ATOM     36  C   UNK d   1       4.170  -7.134  24.518  0.00  0.00     0.071 A 
BRANCH  32  37
ATOM     37  O   UNK d   1       5.278  -7.420  27.979  0.00  0.00    -0.360 OA
ATOM     38  H   UNK d   1       5.181  -8.384  28.018  0.00  0.00     0.217 HD
ENDBRANCH  32  37
BRANCH  36  39
ATOM     39  O   UNK d   1       3.303  -7.709  23.637  0.00  0.00    -0.361 OA
ATOM     40  H   UNK d   1       2.999  -7.039  23.001  0.00  0.00     0.217 HD
ENDBRANCH  36  39
ENDBRANCH   4  26
TORSDOF 11
ENDMDL
MODEL 2
REMARK VINA RESULT:      -7.5     17.173     20.002
REMARK  11 active torsions:
REMARK  status: ('A' for Active; 'I' for Inactive)
REMARK    1  A    between atoms: O_2  and  C_17 
REMARK    2  A    between atoms: O_2  and  C_19 
REMARK    3  A    between atoms: O_3  and  C_13 
REMARK    4  A    between atoms: O_4  and  C_14 
REMARK    5  A    between atoms: O_5  and  C_15 
REMARK    6  A    between atoms: O_6  and  C_18 
REMARK    7  A    between atoms: O_8  and  C_21 
REMARK    8  A    between atoms: O_11  and  C_30 
REMARK    9  A    between atoms: O_12  and  C_33 
REMARK   10  A    between atoms: C_16  and  C_18 
REMARK   11  A    between atoms: C_22  and  C_25 
ROOT
ATOM      1  C   UNK d   1      25.322  -4.458  21.491  0.00  0.00     0.106 A 
ATOM      2  C   UNK d   1      25.225  -3.446  20.516  0.00  0.00     0.054 A 
ATOM      3  C   UNK d   1      25.148  -5.799  21.110  0.00  0.00     0.101 A 
ATOM      4  C   UNK d   1      24.903  -3.725  19.174  0.00  0.00     0.001 A 
ATOM      5  C   UNK d   1      24.852  -6.094  19.779  0.00  0.00     0.040 A 
ATOM      6  C   UNK d   1      24.722  -5.072  18.832  0.00  0.00     0.017 A 
ENDROOT
BRANCH   1   7
ATOM      7  O   UNK d   1      25.572  -4.233  22.828  0.00  0.00    -0.315 OA
BRANCH   7   8
ATOM      8  C   UNK d   1      24.516  -3.687  23.624  0.00  0.00     0.299 C 
ATOM      9  O   UNK d   1      24.885  -2.382  24.076  0.00  0.00    -0.340 OA
ATOM     10  C   UNK d   1      23.876  -1.722  24.829  0.00  0.00     0.253 C 
ATOM     11  C   UNK d   1      23.537  -2.522  26.089  0.00  0.00     0.189 C 
ATOM     12  C   UNK d   1      23.177  -3.960  25.713  0.00  0.00     0.183 C 
ATOM     13  C   UNK d   1      24.258  -4.605  24.840  0.00  0.00     0.205 C 
BRANCH  10  14
ATOM     14  C   UNK d   1      24.328  -0.307  25.231  0.00  0.00     0.172 C 
ATOM     15  O   UNK d   1      23.597   0.574  25.655  0.00  0.00    -0.648 OA
BRANCH  14  16
ATOM     16  O   UNK d   1      25.671  -0.122  25.125  0.00  0.00    -0.774 OA
ATOM     17  H   UNK d   1      26.021   0.496  25.811  0.00  0.00     0.167 HD
ENDBRANCH  14  16
ENDBRANCH  10  14
BRANCH  11  18
ATOM     18  O   UNK d   1      22.410  -1.924  26.761  0.00  0.00    -0.390 OA
ATOM     19  H   UNK d   1      21.972  -2.659  27.241  0.00  0.00     0.210 HD
ENDBRANCH  11  18
BRANCH  12  20
ATOM     20  O   UNK d   1      22.986  -4.732  26.911  0.00  0.00    -0.390 OA
ATOM     21  H   UNK d   1      23.096  -5.670  26.670  0.00  0.00     0.210 HD
ENDBRANCH  12  20
BRANCH  13  22
ATOM     22  O   UNK d   1      23.774  -5.897  24.437  0.00  0.00    -0.388 OA
ATOM     23  H   UNK d   1      24.567  -6.410  24.190  0.00  0.00     0.210 HD
ENDBRANCH  13  22
ENDBRANCH   7   8
ENDBRANCH   1   7
BRANCH   3  24
ATOM     24  O   UNK d   1      25.279  -6.747  22.095  0.00  0.00    -0.353 OA
ATOM     25  C   UNK d   1      25.622  -8.066  21.687  0.00  0.00     0.210 C 
ENDBRANCH   3  24
BRANCH   4  26
ATOM     26  C   UNK d   1      24.747  -2.618  18.183  0.00  0.00     0.090 A 
ATOM     27  O   UNK d   1      24.868  -1.338  18.715  0.00  0.00    -0.309 OA
ATOM     28  C   UNK d   1      24.736  -0.253  17.882  0.00  0.00     0.095 A 
ATOM     29  C   UNK d   1      24.464  -0.358  16.516  0.00  0.00     0.081 A 
ATOM     30  C   UNK d   1      24.887   1.004  18.473  0.00  0.00     0.075 A 
ATOM     31  C   UNK d   1      24.314  -1.713  15.952  0.00  0.00     0.190 A 
ATOM     32  C   UNK d   1      24.346   0.808  15.744  0.00  0.00     0.085 A 
ATOM     33  O   UNK d   1      24.053  -1.957  14.781  0.00  0.00    -0.287 OA
ATOM     34  C   UNK d   1      24.489  -2.837  16.886  0.00  0.00     0.094 A 
ATOM     35  C   UNK d   1      24.497   2.067  16.333  0.00  0.00     0.074 A 
ATOM     36  C   UNK d   1      24.766   2.150  17.696  0.00  0.00     0.071 A 
BRANCH  32  37
ATOM     37  O   UNK d   1      24.080   0.736  14.407  0.00  0.00    -0.360 OA
ATOM     38  H   UNK d   1      24.137   1.609  13.991  0.00  0.00     0.217 HD
ENDBRANCH  32  37
BRANCH  36  39
ATOM     39  O   UNK d   1      24.919   3.356  18.315  0.00  0.00    -0.361 OA
ATOM     40  H   UNK d   1      24.761   3.249  19.269  0.00  0.00     0.217 HD
ENDBRANCH  36  39
ENDBRANCH   4  26
TORSDOF 11
ENDMDL
MODEL 3
REMARK VINA RESULT:      -7.3     17.552     19.560
REMARK  11 active torsions:
REMARK  status: ('A' for Active; 'I' for Inactive)
REMARK    1  A    between atoms: O_2  and  C_17 
REMARK    2  A    between atoms: O_2  and  C_19 
REMARK    3  A    between atoms: O_3  and  C_13 
REMARK    4  A    between atoms: O_4  and  C_14 
REMARK    5  A    between atoms: O_5  and  C_15 
REMARK    6  A    between atoms: O_6  and  C_18 
REMARK    7  A    between atoms: O_8  and  C_21 
REMARK    8  A    between atoms: O_11  and  C_30 
REMARK    9  A    between atoms: O_12  and  C_33 
REMARK   10  A    between atoms: C_16  and  C_18 
REMARK   11  A    between atoms: C_22  and  C_25 
ROOT
ATOM      1  C   UNK d   1      23.801  -1.200  24.192  0.00  0.00     0.106 A 
ATOM      2  C   UNK d   1      23.770  -1.689  22.871  0.00  0.00     0.054 A 
ATOM      3  C   UNK d   1      24.305   0.089  24.436  0.00  0.00     0.101 A 
ATOM      4  C   UNK d   1      24.279  -0.952  21.785  0.00  0.00     0.001 A 
ATOM      5  C   UNK d   1      24.792   0.842  23.366  0.00  0.00     0.040 A 
ATOM      6  C   UNK d   1      24.788   0.323  22.066  0.00  0.00     0.017 A 
ENDROOT
BRANCH   1   7
ATOM      7  O   UNK d   1      23.375  -1.905  25.296  0.00  0.00    -0.315 OA
BRANCH   7   8
ATOM      8  C   UNK d   1      24.295  -2.813  25.908  0.00  0.00     0.299 C 
ATOM      9  O   UNK d   1      23.991  -4.150  25.501  0.00  0.00    -0.340 OA
ATOM     10  C   UNK d   1      24.888  -5.129  26.006  0.00  0.00     0.253 C 
ATOM     11  C   UNK d   1      24.863  -5.141  27.536  0.00  0.00     0.189 C 
ATOM     12  C   UNK d   1      25.128  -3.734  28.074  0.00  0.00     0.183 C 
ATOM     13  C   UNK d   1      24.187  -2.701  27.445  0.00  0.00     0.205 C 
BRANCH  10  14
ATOM     14  C   UNK d   1      24.525  -6.529  25.480  0.00  0.00     0.172 C 
ATOM     15  O   UNK d   1      24.573  -6.877  24.311  0.00  0.00    -0.648 OA
BRANCH  14  16
ATOM     16  O   UNK d   1      24.185  -7.402  26.465  0.00  0.00    -0.774 OA
ATOM     17  H   UNK d   1      24.973  -7.767  26.933  0.00  0.00     0.167 HD
ENDBRANCH  14  16
ENDBRANCH  10  14
BRANCH  11  18
ATOM     18  O   UNK d   1      25.884  -6.027  28.036  0.00  0.00    -0.390 OA
ATOM     19  H   UNK d   1      25.437  -6.591  28.703  0.00  0.00     0.210 HD
ENDBRANCH  11  18
BRANCH  12  20
ATOM     20  O   UNK d   1      24.976  -3.734  29.503  0.00  0.00    -0.390 OA
ATOM     21  H   UNK d   1      24.978  -2.803  29.793  0.00  0.00     0.210 HD
ENDBRANCH  12  20
BRANCH  13  22
ATOM     22  O   UNK d   1      24.595  -1.405  27.913  0.00  0.00    -0.388 OA
ATOM     23  H   UNK d   1      24.370  -1.384  28.862  0.00  0.00     0.210 HD
ENDBRANCH  13  22
ENDBRANCH   7   8
ENDBRANCH   1   7
BRANCH   3  24
ATOM     24  O   UNK d   1      24.289   0.526  25.737  0.00  0.00    -0.353 OA
ATOM     25  C   UNK d   1      23.370   1.563  26.064  0.00  0.00     0.210 C 
ENDBRANCH   3  24
BRANCH   4  26
ATOM     26  C   UNK d   1      24.286  -1.532  20.407  0.00  0.00     0.090 A 
ATOM     27  O   UNK d   1      24.104  -0.606  19.385  0.00  0.00    -0.309 OA
ATOM     28  C   UNK d   1      24.091  -1.042  18.082  0.00  0.00     0.095 A 
ATOM     29  C   UNK d   1      24.233  -2.383  17.717  0.00  0.00     0.081 A 
ATOM     30  C   UNK d   1      23.922  -0.062  17.102  0.00  0.00     0.075 A 
ATOM     31  C   UNK d   1      24.406  -3.371  18.799  0.00  0.00     0.190 A 
ATOM     32  C   UNK d   1      24.207  -2.734  16.359  0.00  0.00     0.085 A 
ATOM     33  O   UNK d   1      24.519  -4.578  18.631  0.00  0.00    -0.287 OA
ATOM     34  C   UNK d   1      24.435  -2.842  20.173  0.00  0.00     0.094 A 
ATOM     35  C   UNK d   1      24.039  -1.755  15.375  0.00  0.00     0.074 A 
ATOM     36  C   UNK d   1      23.897  -0.425  15.760  0.00  0.00     0.071 A 
BRANCH  32  37
ATOM     37  O   UNK d   1      24.343  -4.037  15.973  0.00  0.00    -0.360 OA
ATOM     38  H   UNK d   1      23.620  -4.306  15.387  0.00  0.00     0.217 HD
ENDBRANCH  32  37
BRANCH  36  39
ATOM     39  O   UNK d   1      23.729   0.564  14.837  0.00  0.00    -0.361 OA
ATOM     40  H   UNK d   1      22.861   0.983  14.970  0.00  0.00     0.217 HD
ENDBRANCH  36  39
ENDBRANCH   4  26
TORSDOF 11
ENDMDL
MODEL 4
REMARK VINA RESULT:      -7.2     28.421     33.433
REMARK  11 active torsions:
REMARK  status: ('A' for Active; 'I' for Inactive)
REMARK    1  A    between atoms: O_2  and  C_17 
REMARK    2  A    between atoms: O_2  and  C_19 
REMARK    3  A    between atoms: O_3  and  C_13 
REMARK    4  A    between atoms: O_4  and  C_14 
REMARK    5  A    between atoms: O_5  and  C_15 
REMARK    6  A    between atoms: O_6  and  C_18 
REMARK    7  A    between atoms: O_8  and  C_21 
REMARK    8  A    between atoms: O_11  and  C_30 
REMARK    9  A    between atoms: O_12  and  C_33 
REMARK   10  A    between atoms: C_16  and  C_18 
REMARK   11  A    between atoms: C_22  and  C_25 
ROOT
ATOM      1  C   UNK d   1      18.704  -1.700  -7.421  0.00  0.00     0.106 A 
ATOM      2  C   UNK d   1      17.463  -2.031  -7.998  0.00  0.00     0.054 A 
ATOM      3  C   UNK d   1      19.861  -1.721  -8.218  0.00  0.00     0.101 A 
ATOM      4  C   UNK d   1      17.344  -2.439  -9.341  0.00  0.00     0.001 A 
ATOM      5  C   UNK d   1      19.756  -2.102  -9.557  0.00  0.00     0.040 A 
ATOM      6  C   UNK d   1      18.520  -2.464 -10.103  0.00  0.00     0.017 A 
ENDROOT
BRANCH   1   7
ATOM      7  O   UNK d   1      18.883  -1.356  -6.099  0.00  0.00    -0.315 OA
BRANCH   7   8
ATOM      8  C   UNK d   1      18.153  -2.089  -5.110  0.00  0.00     0.299 C 
ATOM      9  O   UNK d   1      17.016  -1.328  -4.694  0.00  0.00    -0.340 OA
ATOM     10  C   UNK d   1      16.185  -1.994  -3.754  0.00  0.00     0.253 C 
ATOM     11  C   UNK d   1      16.966  -2.313  -2.477  0.00  0.00     0.189 C 
ATOM     12  C   UNK d   1      18.239  -3.087  -2.824  0.00  0.00     0.183 C 
ATOM     13  C   UNK d   1      19.065  -2.368  -3.896  0.00  0.00     0.205 C 
BRANCH  10  14
ATOM     14  C   UNK d   1      14.959  -1.134  -3.399  0.00  0.00     0.172 C 
ATOM     15  O   UNK d   1      13.990  -0.956  -4.119  0.00  0.00    -0.648 OA
BRANCH  14  16
ATOM     16  O   UNK d   1      15.016  -0.609  -2.146  0.00  0.00    -0.774 OA
ATOM     17  H   UNK d   1      14.220  -0.068  -1.928  0.00  0.00     0.167 HD
ENDBRANCH  14  16
ENDBRANCH  10  14
BRANCH  11  18
ATOM     18  O   UNK d   1      16.160  -3.121  -1.597  0.00  0.00    -0.390 OA
ATOM     19  H   UNK d   1      16.464  -4.043  -1.736  0.00  0.00     0.210 HD
ENDBRANCH  11  18
BRANCH  12  20
ATOM     20  O   UNK d   1      19.025  -3.269  -1.635  0.00  0.00    -0.390 OA
ATOM     21  H   UNK d   1      18.600  -3.975  -1.113  0.00  0.00     0.210 HD
ENDBRANCH  12  20
BRANCH  13  22
ATOM     22  O   UNK d   1      20.164  -3.227  -4.243  0.00  0.00    -0.388 OA
ATOM     23  H   UNK d   1      20.426  -3.668  -3.413  0.00  0.00     0.210 HD
ENDBRANCH  13  22
ENDBRANCH   7   8
ENDBRANCH   1   7
BRANCH   3  24
ATOM     24  O   UNK d   1      21.040  -1.365  -7.612  0.00  0.00    -0.353 OA
ATOM     25  C   UNK d   1      21.809  -0.344  -8.235  0.00  0.00     0.210 C 
ENDBRANCH   3  24
BRANCH   4  26
ATOM     26  C   UNK d   1      16.018  -2.844  -9.899  0.00  0.00     0.090 A 
ATOM     27  O   UNK d   1      15.804  -2.468 -11.222  0.00  0.00    -0.309 OA
ATOM     28  C   UNK d   1      14.612  -2.791 -11.824  0.00  0.00     0.095 A 
ATOM     29  C   UNK d   1      13.578  -3.468 -11.174  0.00  0.00     0.081 A 
ATOM     30  C   UNK d   1      14.466  -2.402 -13.158  0.00  0.00     0.075 A 
ATOM     31  C   UNK d   1      13.793  -3.850  -9.765  0.00  0.00     0.190 A 
ATOM     32  C   UNK d   1      12.395  -3.755 -11.871  0.00  0.00     0.085 A 
ATOM     33  O   UNK d   1      12.970  -4.425  -9.064  0.00  0.00    -0.287 OA
ATOM     34  C   UNK d   1      15.097  -3.499  -9.180  0.00  0.00     0.094 A 
ATOM     35  C   UNK d   1      12.246  -3.367 -13.206  0.00  0.00     0.074 A 
ATOM     36  C   UNK d   1      13.287  -2.692 -13.836  0.00  0.00     0.071 A 
BRANCH  32  37
ATOM     37  O   UNK d   1      11.368  -4.416 -11.260  0.00  0.00    -0.360 OA
ATOM     38  H   UNK d   1      10.692  -3.797 -10.946  0.00  0.00     0.217 HD
ENDBRANCH  32  37
BRANCH  36  39
ATOM     39  O   UNK d   1      13.188  -2.292 -15.135  0.00  0.00    -0.361 OA
ATOM     40  H   UNK d   1      12.503  -2.818 -15.582  0.00  0.00     0.217 HD
ENDBRANCH  36  39
ENDBRANCH   4  26
TORSDOF 11
ENDMDL
MODEL 5
REMARK VINA RESULT:      -7.2      1.632      2.529
REMARK  11 active torsions:
REMARK  status: ('A' for Active; 'I' for Inactive)
REMARK    1  A    between atoms: O_2  and  C_17 
REMARK    2  A    between atoms: O_2  and  C_19 
REMARK    3  A    between atoms: O_3  and  C_13 
REMARK    4  A    between atoms: O_4  and  C_14 
REMARK    5  A    between atoms: O_5  and  C_15 
REMARK    6  A    between atoms: O_6  and  C_18 
REMARK    7  A    between atoms: O_8  and  C_21 
REMARK    8  A    between atoms: O_11  and  C_30 
REMARK    9  A    between atoms: O_12  and  C_33 
REMARK   10  A    between atoms: C_16  and  C_18 
REMARK   11  A    between atoms: C_22  and  C_25 
ROOT
ATOM      1  C   UNK d   1       7.794  -1.397  23.825  0.00  0.00     0.106 A 
ATOM      2  C   UNK d   1       6.822  -2.329  24.236  0.00  0.00     0.054 A 
ATOM      3  C   UNK d   1       9.151  -1.762  23.850  0.00  0.00     0.101 A 
ATOM      4  C   UNK d   1       7.164  -3.604  24.727  0.00  0.00     0.001 A 
ATOM      5  C   UNK d   1       9.505  -3.031  24.313  0.00  0.00     0.040 A 
ATOM      6  C   UNK d   1       8.527  -3.930  24.752  0.00  0.00     0.017 A 
ENDROOT
BRANCH   1   7
ATOM      7  O   UNK d   1       7.517  -0.117  23.397  0.00  0.00    -0.315 OA
BRANCH   7   8
ATOM      8  C   UNK d   1       6.475   0.057  22.433  0.00  0.00     0.299 C 
ATOM      9  O   UNK d   1       7.013  -0.091  21.116  0.00  0.00    -0.340 OA
ATOM     10  C   UNK d   1       6.045   0.002  20.080  0.00  0.00     0.253 C 
ATOM     11  C   UNK d   1       5.364   1.372  20.103  0.00  0.00     0.189 C 
ATOM     12  C   UNK d   1       4.797   1.650  21.496  0.00  0.00     0.183 C 
ATOM     13  C   UNK d   1       5.857   1.464  22.587  0.00  0.00     0.205 C 
BRANCH  10  14
ATOM     14  C   UNK d   1       6.693  -0.222  18.702  0.00  0.00     0.172 C 
ATOM     15  O   UNK d   1       6.110  -0.612  17.703  0.00  0.00    -0.648 OA
BRANCH  14  16
ATOM     16  O   UNK d   1       8.010   0.115  18.667  0.00  0.00    -0.774 OA
ATOM     17  H   UNK d   1       8.314   0.531  19.508  0.00  0.00     0.167 HD
ENDBRANCH  14  16
ENDBRANCH  10  14
BRANCH  11  18
ATOM     18  O   UNK d   1       4.283   1.399  19.150  0.00  0.00    -0.390 OA
ATOM     19  H   UNK d   1       4.641   0.982  18.337  0.00  0.00     0.210 HD
ENDBRANCH  11  18
BRANCH  12  20
ATOM     20  O   UNK d   1       4.275   2.989  21.539  0.00  0.00    -0.390 OA
ATOM     21  H   UNK d   1       5.023   3.584  21.732  0.00  0.00     0.210 HD
ENDBRANCH  12  20
BRANCH  13  22
ATOM     22  O   UNK d   1       5.202   1.621  23.856  0.00  0.00    -0.388 OA
ATOM     23  H   UNK d   1       4.340   1.172  23.765  0.00  0.00     0.210 HD
ENDBRANCH  13  22
ENDBRANCH   7   8
ENDBRANCH   1   7
BRANCH   3  24
ATOM     24  O   UNK d   1      10.055  -0.825  23.416  0.00  0.00    -0.353 OA
ATOM     25  C   UNK d   1      10.529  -0.949  22.079  0.00  0.00     0.210 C 
ENDBRANCH   3  24
BRANCH   4  26
ATOM     26  C   UNK d   1       6.106  -4.542  25.213  0.00  0.00     0.090 A 
ATOM     27  O   UNK d   1       5.497  -4.165  26.405  0.00  0.00    -0.309 OA
ATOM     28  C   UNK d   1       4.514  -4.966  26.936  0.00  0.00     0.095 A 
ATOM     29  C   UNK d   1       4.096  -6.163  26.351  0.00  0.00     0.081 A 
ATOM     30  C   UNK d   1       3.930  -4.523  28.125  0.00  0.00     0.075 A 
ATOM     31  C   UNK d   1       4.754  -6.577  25.097  0.00  0.00     0.190 A 
ATOM     32  C   UNK d   1       3.084  -6.915  26.967  0.00  0.00     0.085 A 
ATOM     33  O   UNK d   1       4.508  -7.609  24.487  0.00  0.00    -0.287 OA
ATOM     34  C   UNK d   1       5.782  -5.669  24.564  0.00  0.00     0.094 A 
ATOM     35  C   UNK d   1       2.496  -6.475  28.156  0.00  0.00     0.074 A 
ATOM     36  C   UNK d   1       2.928  -5.280  28.724  0.00  0.00     0.071 A 
BRANCH  32  37
ATOM     37  O   UNK d   1       2.655  -8.089  26.417  0.00  0.00    -0.360 OA
ATOM     38  H   UNK d   1       1.731  -8.026  26.134  0.00  0.00     0.217 HD
ENDBRANCH  32  37
BRANCH  36  39
ATOM     39  O   UNK d   1       2.387  -4.811  29.884  0.00  0.00    -0.361 OA
ATOM     40  H   UNK d   1       2.730  -5.329  30.632  0.00  0.00     0.217 HD
ENDBRANCH  36  39
ENDBRANCH   4  26
TORSDOF 11
ENDMDL
MODEL 6
REMARK VINA RESULT:      -7.2     25.041     30.887
REMARK  11 active torsions:
REMARK  status: ('A' for Active; 'I' for Inactive)
REMARK    1  A    between atoms: O_2  and  C_17 
REMARK    2  A    between atoms: O_2  and  C_19 
REMARK    3  A    between atoms: O_3  and  C_13 
REMARK    4  A    between atoms: O_4  and  C_14 
REMARK    5  A    between atoms: O_5  and  C_15 
REMARK    6  A    between atoms: O_6  and  C_18 
REMARK    7  A    between atoms: O_8  and  C_21 
REMARK    8  A    between atoms: O_11  and  C_30 
REMARK    9  A    between atoms: O_12  and  C_33 
REMARK   10  A    between atoms: C_16  and  C_18 
REMARK   11  A    between atoms: C_22  and  C_25 
ROOT
ATOM      1  C   UNK d   1       9.640  16.954   3.149  0.00  0.00     0.106 A 
ATOM      2  C   UNK d   1       9.725  18.197   2.494  0.00  0.00     0.054 A 
ATOM      3  C   UNK d   1       8.586  16.079   2.832  0.00  0.00     0.101 A 
ATOM      4  C   UNK d   1       8.756  18.625   1.566  0.00  0.00     0.001 A 
ATOM      5  C   UNK d   1       7.630  16.479   1.897  0.00  0.00     0.040 A 
ATOM      6  C   UNK d   1       7.711  17.734   1.284  0.00  0.00     0.017 A 
ENDROOT
BRANCH   1   7
ATOM      7  O   UNK d   1      10.525  16.516   4.110  0.00  0.00    -0.315 OA
BRANCH   7   8
ATOM      8  C   UNK d   1      10.528  17.185   5.375  0.00  0.00     0.299 C 
ATOM      9  O   UNK d   1      11.744  17.922   5.522  0.00  0.00    -0.340 OA
ATOM     10  C   UNK d   1      11.823  18.678   6.724  0.00  0.00     0.253 C 
ATOM     11  C   UNK d   1      11.739  17.756   7.943  0.00  0.00     0.189 C 
ATOM     12  C   UNK d   1      10.489  16.881   7.852  0.00  0.00     0.183 C 
ATOM     13  C   UNK d   1      10.409  16.145   6.510  0.00  0.00     0.205 C 
BRANCH  10  14
ATOM     14  C   UNK d   1      13.133  19.482   6.781  0.00  0.00     0.172 C 
ATOM     15  O   UNK d   1      13.301  20.592   6.304  0.00  0.00    -0.648 OA
BRANCH  14  16
ATOM     16  O   UNK d   1      14.117  18.857   7.482  0.00  0.00    -0.774 OA
ATOM     17  H   UNK d   1      13.759  18.248   8.171  0.00  0.00     0.167 HD
ENDBRANCH  14  16
ENDBRANCH  10  14
BRANCH  11  18
ATOM     18  O   UNK d   1      11.666  18.544   9.148  0.00  0.00    -0.390 OA
ATOM     19  H   UNK d   1      10.709  18.695   9.304  0.00  0.00     0.210 HD
ENDBRANCH  11  18
BRANCH  12  20
ATOM     20  O   UNK d   1      10.490  15.935   8.934  0.00  0.00    -0.390 OA
ATOM     21  H   UNK d   1       9.734  16.156   9.510  0.00  0.00     0.210 HD
ENDBRANCH  12  20
BRANCH  13  22
ATOM     22  O   UNK d   1       9.148  15.457   6.470  0.00  0.00    -0.388 OA
ATOM     23  H   UNK d   1       9.266  14.728   5.832  0.00  0.00     0.210 HD
ENDBRANCH  13  22
ENDBRANCH   7   8
ENDBRANCH   1   7
BRANCH   3  24
ATOM     24  O   UNK d   1       8.565  14.870   3.482  0.00  0.00    -0.353 OA
ATOM     25  C   UNK d   1       7.915  13.789   2.823  0.00  0.00     0.210 C 
ENDBRANCH   3  24
BRANCH   4  26
ATOM     26  C   UNK d   1       8.847  19.978   0.938  0.00  0.00     0.090 A 
ATOM     27  O   UNK d   1       7.729  20.354   0.201  0.00  0.00    -0.309 OA
ATOM     28  C   UNK d   1       7.718  21.581  -0.419  0.00  0.00     0.095 A 
ATOM     29  C   UNK d   1       8.786  22.479  -0.368  0.00  0.00     0.081 A 
ATOM     30  C   UNK d   1       6.560  21.907  -1.128  0.00  0.00     0.075 A 
ATOM     31  C   UNK d   1       9.982  22.076   0.396  0.00  0.00     0.190 A 
ATOM     32  C   UNK d   1       8.684  23.711  -1.033  0.00  0.00     0.085 A 
ATOM     33  O   UNK d   1      10.999  22.748   0.509  0.00  0.00    -0.287 OA
ATOM     34  C   UNK d   1       9.927  20.762   1.057  0.00  0.00     0.094 A 
ATOM     35  C   UNK d   1       7.526  24.040  -1.743  0.00  0.00     0.074 A 
ATOM     36  C   UNK d   1       6.474  23.130  -1.783  0.00  0.00     0.071 A 
BRANCH  32  37
ATOM     37  O   UNK d   1       9.713  24.608  -1.000  0.00  0.00    -0.360 OA
ATOM     38  H   UNK d   1       9.604  25.290  -1.679  0.00  0.00     0.217 HD
ENDBRANCH  32  37
BRANCH  36  39
ATOM     39  O   UNK d   1       5.326  23.406  -2.465  0.00  0.00    -0.361 OA
ATOM     40  H   UNK d   1       4.608  22.843  -2.127  0.00  0.00     0.217 HD
ENDBRANCH  36  39
ENDBRANCH   4  26
TORSDOF 11
ENDMDL
MODEL 7
REMARK VINA RESULT:      -7.1     16.827     20.048
REMARK  11 active torsions:
REMARK  status: ('A' for Active; 'I' for Inactive)
REMARK    1  A    between atoms: O_2  and  C_17 
REMARK    2  A    between atoms: O_2  and  C_19 
REMARK    3  A    between atoms: O_3  and  C_13 
REMARK    4  A    between atoms: O_4  and  C_14 
REMARK    5  A    between atoms: O_5  and  C_15 
REMARK    6  A    between atoms: O_6  and  C_18 
REMARK    7  A    between atoms: O_8  and  C_21 
REMARK    8  A    between atoms: O_11  and  C_30 
REMARK    9  A    between atoms: O_12  and  C_33 
REMARK   10  A    between atoms: C_16  and  C_18 
REMARK   11  A    between atoms: C_22  and  C_25 
ROOT
ATOM      1  C   UNK d   1      25.269  -4.088  21.234  0.00  0.00     0.106 A 
ATOM      2  C   UNK d   1      25.272  -3.007  20.331  0.00  0.00     0.054 A 
ATOM      3  C   UNK d   1      25.077  -5.391  20.746  0.00  0.00     0.101 A 
ATOM      4  C   UNK d   1      25.034  -3.178  18.954  0.00  0.00     0.001 A 
ATOM      5  C   UNK d   1      24.863  -5.580  19.379  0.00  0.00     0.040 A 
ATOM      6  C   UNK d   1      24.832  -4.489  18.503  0.00  0.00     0.017 A 
ENDROOT
BRANCH   1   7
ATOM      7  O   UNK d   1      25.433  -3.967  22.596  0.00  0.00    -0.315 OA
BRANCH   7   8
ATOM      8  C   UNK d   1      24.301  -3.570  23.376  0.00  0.00     0.299 C 
ATOM      9  O   UNK d   1      24.440  -2.199  23.756  0.00  0.00    -0.340 OA
ATOM     10  C   UNK d   1      23.334  -1.684  24.486  0.00  0.00     0.253 C 
ATOM     11  C   UNK d   1      23.141  -2.463  25.789  0.00  0.00     0.189 C 
ATOM     12  C   UNK d   1      23.034  -3.959  25.491  0.00  0.00     0.183 C 
ATOM     13  C   UNK d   1      24.208  -4.453  24.640  0.00  0.00     0.205 C 
BRANCH  10  14
ATOM     14  C   UNK d   1      23.536  -0.193  24.809  0.00  0.00     0.172 C 
ATOM     15  O   UNK d   1      23.857   0.255  25.898  0.00  0.00    -0.648 OA
BRANCH  14  16
ATOM     16  O   UNK d   1      23.378   0.618  23.729  0.00  0.00    -0.774 OA
ATOM     17  H   UNK d   1      22.709   1.326  23.885  0.00  0.00     0.167 HD
ENDBRANCH  14  16
ENDBRANCH  10  14
BRANCH  11  18
ATOM     18  O   UNK d   1      21.930  -2.033  26.442  0.00  0.00    -0.390 OA
ATOM     19  H   UNK d   1      21.200  -2.314  25.850  0.00  0.00     0.210 HD
ENDBRANCH  11  18
BRANCH  12  20
ATOM     20  O   UNK d   1      22.981  -4.688  26.729  0.00  0.00    -0.390 OA
ATOM     21  H   UNK d   1      23.899  -4.914  26.969  0.00  0.00     0.210 HD
ENDBRANCH  12  20
BRANCH  13  22
ATOM     22  O   UNK d   1      23.953  -5.828  24.309  0.00  0.00    -0.388 OA
ATOM     23  H   UNK d   1      23.282  -5.809  23.600  0.00  0.00     0.210 HD
ENDBRANCH  13  22
ENDBRANCH   7   8
ENDBRANCH   1   7
BRANCH   3  24
ATOM     24  O   UNK d   1      25.108  -6.410  21.665  0.00  0.00    -0.353 OA
ATOM     25  C   UNK d   1      25.591  -7.673  21.221  0.00  0.00     0.210 C 
ENDBRANCH   3  24
BRANCH   4  26
ATOM     26  C   UNK d   1      24.983  -1.999  18.037  0.00  0.00     0.090 A 
ATOM     27  O   UNK d   1      24.978  -2.314  16.682  0.00  0.00    -0.309 OA
ATOM     28  C   UNK d   1      24.936  -1.297  15.759  0.00  0.00     0.095 A 
ATOM     29  C   UNK d   1      24.918   0.057  16.104  0.00  0.00     0.081 A 
ATOM     30  C   UNK d   1      24.915  -1.679  14.416  0.00  0.00     0.075 A 
ATOM     31  C   UNK d   1      24.944   0.396  17.539  0.00  0.00     0.190 A 
ATOM     32  C   UNK d   1      24.875   1.026  15.090  0.00  0.00     0.085 A 
ATOM     33  O   UNK d   1      24.955   1.535  17.988  0.00  0.00    -0.287 OA
ATOM     34  C   UNK d   1      24.965  -0.735  18.482  0.00  0.00     0.094 A 
ATOM     35  C   UNK d   1      24.853   0.647  13.745  0.00  0.00     0.074 A 
ATOM     36  C   UNK d   1      24.874  -0.707  13.423  0.00  0.00     0.071 A 
BRANCH  32  37
ATOM     37  O   UNK d   1      24.856   2.357  15.398  0.00  0.00    -0.360 OA
ATOM     38  H   UNK d   1      24.160   2.819  14.908  0.00  0.00     0.217 HD
ENDBRANCH  32  37
BRANCH  36  39
ATOM     39  O   UNK d   1      24.856  -1.126  12.125  0.00  0.00    -0.361 OA
ATOM     40  H   UNK d   1      24.060  -0.780  11.687  0.00  0.00     0.217 HD
ENDBRANCH  36  39
ENDBRANCH   4  26
TORSDOF 11
ENDMDL
MODEL 8
REMARK VINA RESULT:      -7.1     43.967     48.323
REMARK  11 active torsions:
REMARK  status: ('A' for Active; 'I' for Inactive)
REMARK    1  A    between atoms: O_2  and  C_17 
REMARK    2  A    between atoms: O_2  and  C_19 
REMARK    3  A    between atoms: O_3  and  C_13 
REMARK    4  A    between atoms: O_4  and  C_14 
REMARK    5  A    between atoms: O_5  and  C_15 
REMARK    6  A    between atoms: O_6  and  C_18 
REMARK    7  A    between atoms: O_8  and  C_21 
REMARK    8  A    between atoms: O_11  and  C_30 
REMARK    9  A    between atoms: O_12  and  C_33 
REMARK   10  A    between atoms: C_16  and  C_18 
REMARK   11  A    between atoms: C_22  and  C_25 
ROOT
ATOM      1  C   UNK d   1       9.750  33.573 -12.166  0.00  0.00     0.106 A 
ATOM      2  C   UNK d   1       9.228  32.306 -11.841  0.00  0.00     0.054 A 
ATOM      3  C   UNK d   1       9.826  33.961 -13.514  0.00  0.00     0.101 A 
ATOM      4  C   UNK d   1       8.826  31.384 -12.826  0.00  0.00     0.001 A 
ATOM      5  C   UNK d   1       9.410  33.067 -14.502  0.00  0.00     0.040 A 
ATOM      6  C   UNK d   1       8.928  31.798 -14.161  0.00  0.00     0.017 A 
ENDROOT
BRANCH   1   7
ATOM      7  O   UNK d   1      10.215  34.485 -11.244  0.00  0.00    -0.315 OA
BRANCH   7   8
ATOM      8  C   UNK d   1      11.414  34.167 -10.530  0.00  0.00     0.299 C 
ATOM      9  O   UNK d   1      12.338  33.525 -11.412  0.00  0.00    -0.340 OA
ATOM     10  C   UNK d   1      13.592  33.220 -10.816  0.00  0.00     0.253 C 
ATOM     11  C   UNK d   1      13.407  32.265  -9.635  0.00  0.00     0.189 C 
ATOM     12  C   UNK d   1      12.387  32.842  -8.652  0.00  0.00     0.183 C 
ATOM     13  C   UNK d   1      11.079  33.225  -9.352  0.00  0.00     0.205 C 
BRANCH  10  14
ATOM     14  C   UNK d   1      14.547  32.583 -11.842  0.00  0.00     0.172 C 
ATOM     15  O   UNK d   1      15.748  32.784 -11.907  0.00  0.00    -0.648 OA
BRANCH  14  16
ATOM     16  O   UNK d   1      13.931  31.698 -12.670  0.00  0.00    -0.774 OA
ATOM     17  H   UNK d   1      13.430  32.145 -13.393  0.00  0.00     0.167 HD
ENDBRANCH  14  16
ENDBRANCH  10  14
BRANCH  11  18
ATOM     18  O   UNK d   1      14.661  32.086  -8.948  0.00  0.00    -0.390 OA
ATOM     19  H   UNK d   1      14.681  31.142  -8.681  0.00  0.00     0.210 HD
ENDBRANCH  11  18
BRANCH  12  20
ATOM     20  O   UNK d   1      12.128  31.880  -7.615  0.00  0.00    -0.390 OA
ATOM     21  H   UNK d   1      12.971  31.722  -7.152  0.00  0.00     0.210 HD
ENDBRANCH  12  20
BRANCH  13  22
ATOM     22  O   UNK d   1      10.241  33.870  -8.379  0.00  0.00    -0.388 OA
ATOM     23  H   UNK d   1      10.847  34.374  -7.803  0.00  0.00     0.210 HD
ENDBRANCH  13  22
ENDBRANCH   7   8
ENDBRANCH   1   7
BRANCH   3  24
ATOM     24  O   UNK d   1      10.319  35.216 -13.774  0.00  0.00    -0.353 OA
ATOM     25  C   UNK d   1      11.610  35.296 -14.367  0.00  0.00     0.210 C 
ENDBRANCH   3  24
BRANCH   4  26
ATOM     26  C   UNK d   1       8.336  30.025 -12.444  0.00  0.00     0.090 A 
ATOM     27  O   UNK d   1       7.450  30.006 -11.371  0.00  0.00    -0.309 OA
ATOM     28  C   UNK d   1       6.946  28.802 -10.941  0.00  0.00     0.095 A 
ATOM     29  C   UNK d   1       7.290  27.575 -11.512  0.00  0.00     0.081 A 
ATOM     30  C   UNK d   1       6.049  28.852  -9.872  0.00  0.00     0.075 A 
ATOM     31  C   UNK d   1       8.245  27.589 -12.637  0.00  0.00     0.190 A 
ATOM     32  C   UNK d   1       6.724  26.395 -11.005  0.00  0.00     0.085 A 
ATOM     33  O   UNK d   1       8.653  26.592 -13.219  0.00  0.00    -0.287 OA
ATOM     34  C   UNK d   1       8.732  28.908 -13.069  0.00  0.00     0.094 A 
ATOM     35  C   UNK d   1       5.824  26.442  -9.937  0.00  0.00     0.074 A 
ATOM     36  C   UNK d   1       5.497  27.675  -9.380  0.00  0.00     0.071 A 
BRANCH  32  37
ATOM     37  O   UNK d   1       7.041  25.181 -11.545  0.00  0.00    -0.360 OA
ATOM     38  H   UNK d   1       6.505  24.475 -11.155  0.00  0.00     0.217 HD
ENDBRANCH  32  37
BRANCH  36  39
ATOM     39  O   UNK d   1       4.626  27.771  -8.335  0.00  0.00    -0.361 OA
ATOM     40  H   UNK d   1       3.786  27.346  -8.577  0.00  0.00     0.217 HD
ENDBRANCH  36  39
ENDBRANCH   4  26
TORSDOF 11
ENDMDL
MODEL 9
REMARK VINA RESULT:      -7.1     17.385     20.043
REMARK  11 active torsions:
REMARK  status: ('A' for Active; 'I' for Inactive)
REMARK    1  A    between atoms: O_2  and  C_17 
REMARK    2  A    between atoms: O_2  and  C_19 
REMARK    3  A    between atoms: O_3  and  C_13 
REMARK    4  A    between atoms: O_4  and  C_14 
REMARK    5  A    between atoms: O_5  and  C_15 
REMARK    6  A    between atoms: O_6  and  C_18 
REMARK    7  A    between atoms: O_8  and  C_21 
REMARK    8  A    between atoms: O_11  and  C_30 
REMARK    9  A    between atoms: O_12  and  C_33 
REMARK   10  A    between atoms: C_16  and  C_18 
REMARK   11  A    between atoms: C_22  and  C_25 
ROOT
ATOM      1  C   UNK d   1      23.676  -2.242  23.251  0.00  0.00     0.106 A 
ATOM      2  C   UNK d   1      23.670  -2.178  21.844  0.00  0.00     0.054 A 
ATOM      3  C   UNK d   1      24.138  -1.137  23.988  0.00  0.00     0.101 A 
ATOM      4  C   UNK d   1      24.164  -1.062  21.141  0.00  0.00     0.001 A 
ATOM      5  C   UNK d   1      24.610  -0.015  23.305  0.00  0.00     0.040 A 
ATOM      6  C   UNK d   1      24.631   0.015  21.906  0.00  0.00     0.017 A 
ENDROOT
BRANCH   1   7
ATOM      7  O   UNK d   1      23.264  -3.332  23.984  0.00  0.00    -0.315 OA
BRANCH   7   8
ATOM      8  C   UNK d   1      24.250  -4.294  24.369  0.00  0.00     0.299 C 
ATOM      9  O   UNK d   1      24.505  -5.180  23.276  0.00  0.00    -0.340 OA
ATOM     10  C   UNK d   1      25.521  -6.141  23.533  0.00  0.00     0.253 C 
ATOM     11  C   UNK d   1      25.129  -7.033  24.713  0.00  0.00     0.189 C 
ATOM     12  C   UNK d   1      24.782  -6.170  25.928  0.00  0.00     0.183 C 
ATOM     13  C   UNK d   1      23.741  -5.101  25.584  0.00  0.00     0.205 C 
BRANCH  10  14
ATOM     14  C   UNK d   1      25.772  -7.018  22.294  0.00  0.00     0.172 C 
ATOM     15  O   UNK d   1      24.981  -7.191  21.381  0.00  0.00    -0.648 OA
BRANCH  14  16
ATOM     16  O   UNK d   1      27.017  -7.564  22.266  0.00  0.00    -0.774 OA
ATOM     17  H   UNK d   1      27.725  -6.883  22.170  0.00  0.00     0.167 HD
ENDBRANCH  14  16
ENDBRANCH  10  14
BRANCH  11  18
ATOM     18  O   UNK d   1      26.228  -7.899  25.060  0.00  0.00    -0.390 OA
ATOM     19  H   UNK d   1      26.442  -8.391  24.239  0.00  0.00     0.210 HD
ENDBRANCH  11  18
BRANCH  12  20
ATOM     20  O   UNK d   1      24.295  -7.011  26.986  0.00  0.00    -0.390 OA
ATOM     21  H   UNK d   1      24.592  -6.617  27.827  0.00  0.00     0.210 HD
ENDBRANCH  12  20
BRANCH  13  22
ATOM     22  O   UNK d   1      23.578  -4.268  26.744  0.00  0.00    -0.388 OA
ATOM     23  H   UNK d   1      23.332  -3.387  26.403  0.00  0.00     0.210 HD
ENDBRANCH  13  22
ENDBRANCH   7   8
ENDBRANCH   1   7
BRANCH   3  24
ATOM     24  O   UNK d   1      24.099  -1.243  25.356  0.00  0.00    -0.353 OA
ATOM     25  C   UNK d   1      25.293  -0.937  26.066  0.00  0.00     0.210 C 
ENDBRANCH   3  24
BRANCH   4  26
ATOM     26  C   UNK d   1      24.199  -1.058  19.646  0.00  0.00     0.090 A 
ATOM     27  O   UNK d   1      24.512   0.171  19.075  0.00  0.00    -0.309 OA
ATOM     28  C   UNK d   1      24.565   0.277  17.706  0.00  0.00     0.095 A 
ATOM     29  C   UNK d   1      24.302  -0.786  16.839  0.00  0.00     0.081 A 
ATOM     30  C   UNK d   1      24.902   1.532  17.194  0.00  0.00     0.075 A 
ATOM     31  C   UNK d   1      23.950  -2.086  17.441  0.00  0.00     0.190 A 
ATOM     32  C   UNK d   1      24.380  -0.583  15.453  0.00  0.00     0.085 A 
ATOM     33  O   UNK d   1      23.672  -3.097  16.808  0.00  0.00    -0.287 OA
ATOM     34  C   UNK d   1      23.932  -2.147  18.912  0.00  0.00     0.094 A 
ATOM     35  C   UNK d   1      24.718   0.672  14.938  0.00  0.00     0.074 A 
ATOM     36  C   UNK d   1      24.974   1.720  15.818  0.00  0.00     0.071 A 
BRANCH  32  37
ATOM     37  O   UNK d   1      24.128  -1.604  14.583  0.00  0.00    -0.360 OA
ATOM     38  H   UNK d   1      23.227  -1.943  14.693  0.00  0.00     0.217 HD
ENDBRANCH  32  37
BRANCH  36  39
ATOM     39  O   UNK d   1      25.305   2.962  15.363  0.00  0.00    -0.361 OA
ATOM     40  H   UNK d   1      25.884   2.876  14.587  0.00  0.00     0.217 HD
ENDBRANCH  36  39
ENDBRANCH   4  26
TORSDOF 11
ENDMDL
