MODEL 1
REMARK VINA RESULT:      -5.2      0.000      0.000
REMARK  1 active torsions:
REMARK  status: ('A' for Active; 'I' for Inactive)
REMARK    1  A    between atoms: C_3  and  C_7 
ROOT
ATOM      1  N   LIG d   1       7.747  -1.098  20.750  0.00  0.00    -0.067 N 
ATOM      2  C   LIG d   1       7.044  -1.802  19.598  0.00  0.00     0.222 C 
ATOM      3  C   LIG d   1       6.783  -0.637  18.639  0.00  0.00     0.040 C 
ATOM      4  C   LIG d   1       7.890   0.386  18.883  0.00  0.00     0.030 C 
ATOM      5  C   LIG d   1       8.637  -0.058  20.130  0.00  0.00     0.235 C 
ATOM      6  C   LIG d   1       8.432  -1.967  21.756  0.00  0.00     0.270 C 
ATOM      7  H   LIG d   1       7.012  -0.592  21.260  0.00  0.00     0.280 HD
ENDROOT
BRANCH   2   8
ATOM      8  C   LIG d   1       7.782  -2.982  19.017  0.00  0.00    -0.010 A 
ATOM      9  C   LIG d   1       7.451  -4.286  19.419  0.00  0.00     0.012 A 
ATOM     10  C   LIG d   1       8.148  -5.379  18.909  0.00  0.00     0.020 A 
ATOM     11  C   LIG d   1       9.170  -5.141  18.011  0.00  0.00     0.116 A 
ATOM     12  N   LIG d   1       9.523  -3.904  17.603  0.00  0.00    -0.273 NA
ATOM     13  C   LIG d   1       8.821  -2.863  18.098  0.00  0.00     0.125 A 
ENDBRANCH   2   8
TORSDOF 1
ENDMDL
MODEL 2
REMARK VINA RESULT:      -5.0     27.276     28.456
REMARK  1 active torsions:
REMARK  status: ('A' for Active; 'I' for Inactive)
REMARK    1  A    between atoms: C_3  and  C_7 
ROOT
ATOM      1  N   LIG d   1      19.535   4.109  -6.020  0.00  0.00    -0.067 N 
ATOM      2  C   LIG d   1      19.604   5.582  -6.394  0.00  0.00     0.222 C 
ATOM      3  C   LIG d   1      18.382   5.724  -7.307  0.00  0.00     0.040 C 
ATOM      4  C   LIG d   1      17.367   4.682  -6.844  0.00  0.00     0.030 C 
ATOM      5  C   LIG d   1      18.078   3.784  -5.846  0.00  0.00     0.235 C 
ATOM      6  C   LIG d   1      20.402   3.657  -4.888  0.00  0.00     0.270 C 
ATOM      7  H   LIG d   1      19.856   3.593  -6.850  0.00  0.00     0.280 HD
ENDROOT
BRANCH   2   8
ATOM      8  C   LIG d   1      19.675   6.540  -5.231  0.00  0.00    -0.010 A 
ATOM      9  C   LIG d   1      18.526   6.809  -4.471  0.00  0.00     0.012 A 
ATOM     10  C   LIG d   1      18.577   7.716  -3.414  0.00  0.00     0.020 A 
ATOM     11  C   LIG d   1      19.780   8.339  -3.146  0.00  0.00     0.116 A 
ATOM     12  N   LIG d   1      20.905   8.113  -3.855  0.00  0.00    -0.273 NA
ATOM     13  C   LIG d   1      20.834   7.218  -4.864  0.00  0.00     0.125 A 
ENDBRANCH   2   8
TORSDOF 1
ENDMDL
MODEL 3
REMARK VINA RESULT:      -5.0     26.780     27.903
REMARK  1 active torsions:
REMARK  status: ('A' for Active; 'I' for Inactive)
REMARK    1  A    between atoms: C_3  and  C_7 
ROOT
ATOM      1  N   LIG d   1      20.237   6.055  -3.058  0.00  0.00    -0.067 N 
ATOM      2  C   LIG d   1      18.827   6.394  -3.519  0.00  0.00     0.222 C 
ATOM      3  C   LIG d   1      18.773   7.902  -3.258  0.00  0.00     0.040 C 
ATOM      4  C   LIG d   1      20.203   8.421  -3.392  0.00  0.00     0.030 C 
ATOM      5  C   LIG d   1      21.108   7.204  -3.482  0.00  0.00     0.235 C 
ATOM      6  C   LIG d   1      20.770   4.710  -3.442  0.00  0.00     0.270 C 
ATOM      7  H   LIG d   1      20.209   6.069  -2.031  0.00  0.00     0.280 HD
ENDROOT
BRANCH   2   8
ATOM      8  C   LIG d   1      18.483   5.954  -4.920  0.00  0.00    -0.010 A 
ATOM      9  C   LIG d   1      18.931   6.700  -6.022  0.00  0.00     0.012 A 
ATOM     10  C   LIG d   1      18.592   6.316  -7.318  0.00  0.00     0.020 A 
ATOM     11  C   LIG d   1      17.803   5.194  -7.481  0.00  0.00     0.116 A 
ATOM     12  N   LIG d   1      17.348   4.453  -6.450  0.00  0.00    -0.273 NA
ATOM     13  C   LIG d   1      17.703   4.836  -5.205  0.00  0.00     0.125 A 
ENDBRANCH   2   8
TORSDOF 1
ENDMDL
MODEL 4
REMARK VINA RESULT:      -4.8      2.051      3.933
REMARK  1 active torsions:
REMARK  status: ('A' for Active; 'I' for Inactive)
REMARK    1  A    between atoms: C_3  and  C_7 
ROOT
ATOM      1  N   LIG d   1       7.547  -3.234  18.444  0.00  0.00    -0.067 N 
ATOM      2  C   LIG d   1       7.527  -4.615  19.083  0.00  0.00     0.222 C 
ATOM      3  C   LIG d   1       8.618  -5.337  18.288  0.00  0.00     0.040 C 
ATOM      4  C   LIG d   1       9.615  -4.269  17.844  0.00  0.00     0.030 C 
ATOM      5  C   LIG d   1       8.989  -2.921  18.159  0.00  0.00     0.235 C 
ATOM      6  C   LIG d   1       6.816  -2.145  19.164  0.00  0.00     0.270 C 
ATOM      7  H   LIG d   1       7.082  -3.338  17.534  0.00  0.00     0.280 HD
ENDROOT
BRANCH   2   8
ATOM      8  C   LIG d   1       7.681  -4.634  20.583  0.00  0.00    -0.010 A 
ATOM      9  C   LIG d   1       7.150  -5.696  21.332  0.00  0.00     0.012 A 
ATOM     10  C   LIG d   1       7.263  -5.705  22.721  0.00  0.00     0.020 A 
ATOM     11  C   LIG d   1       7.900  -4.643  23.331  0.00  0.00     0.116 A 
ATOM     12  N   LIG d   1       8.419  -3.600  22.649  0.00  0.00    -0.273 NA
ATOM     13  C   LIG d   1       8.311  -3.623  21.304  0.00  0.00     0.125 A 
ENDBRANCH   2   8
TORSDOF 1
ENDMDL
MODEL 5
REMARK VINA RESULT:      -4.5     24.542     26.161
REMARK  1 active torsions:
REMARK  status: ('A' for Active; 'I' for Inactive)
REMARK    1  A    between atoms: C_3  and  C_7 
ROOT
ATOM      1  N   LIG d   1      14.389  -2.571  -7.769  0.00  0.00    -0.067 N 
ATOM      2  C   LIG d   1      13.748  -2.631  -6.390  0.00  0.00     0.222 C 
ATOM      3  C   LIG d   1      12.816  -3.837  -6.537  0.00  0.00     0.040 C 
ATOM      4  C   LIG d   1      13.457  -4.762  -7.569  0.00  0.00     0.030 C 
ATOM      5  C   LIG d   1      14.610  -3.995  -8.195  0.00  0.00     0.235 C 
ATOM      6  C   LIG d   1      15.593  -1.695  -7.918  0.00  0.00     0.270 C 
ATOM      7  H   LIG d   1      13.673  -2.183  -8.395  0.00  0.00     0.280 HD
ENDROOT
BRANCH   2   8
ATOM      8  C   LIG d   1      14.714  -2.680  -5.232  0.00  0.00    -0.010 A 
ATOM      9  C   LIG d   1      15.396  -3.870  -4.935  0.00  0.00     0.012 A 
ATOM     10  C   LIG d   1      16.267  -3.931  -3.849  0.00  0.00     0.020 A 
ATOM     11  C   LIG d   1      16.429  -2.797  -3.077  0.00  0.00     0.116 A 
ATOM     12  N   LIG d   1      15.788  -1.636  -3.325  0.00  0.00    -0.273 NA
ATOM     13  C   LIG d   1      14.963  -1.597  -4.392  0.00  0.00     0.125 A 
ENDBRANCH   2   8
TORSDOF 1
ENDMDL
MODEL 6
REMARK VINA RESULT:      -4.4      2.036      3.416
REMARK  1 active torsions:
REMARK  status: ('A' for Active; 'I' for Inactive)
REMARK    1  A    between atoms: C_3  and  C_7 
ROOT
ATOM      1  N   LIG d   1       9.347   0.890  21.697  0.00  0.00    -0.067 N 
ATOM      2  C   LIG d   1       9.940  -0.157  20.764  0.00  0.00     0.222 C 
ATOM      3  C   LIG d   1      10.846  -0.940  21.718  0.00  0.00     0.040 C 
ATOM      4  C   LIG d   1      10.217  -0.833  23.106  0.00  0.00     0.030 C 
ATOM      5  C   LIG d   1       9.105   0.198  23.009  0.00  0.00     0.235 C 
ATOM      6  C   LIG d   1       8.171   1.662  21.187  0.00  0.00     0.270 C 
ATOM      7  H   LIG d   1      10.093   1.577  21.859  0.00  0.00     0.280 HD
ENDROOT
BRANCH   2   8
ATOM      8  C   LIG d   1       8.935  -0.972  19.989  0.00  0.00    -0.010 A 
ATOM      9  C   LIG d   1       8.423  -2.161  20.533  0.00  0.00     0.012 A 
ATOM     10  C   LIG d   1       7.518  -2.934  19.809  0.00  0.00     0.020 A 
ATOM     11  C   LIG d   1       7.150  -2.503  18.550  0.00  0.00     0.116 A 
ATOM     12  N   LIG d   1       7.623  -1.370  17.989  0.00  0.00    -0.273 NA
ATOM     13  C   LIG d   1       8.486  -0.630  18.716  0.00  0.00     0.125 A 
ENDBRANCH   2   8
TORSDOF 1
ENDMDL
MODEL 7
REMARK VINA RESULT:      -4.4      3.801      5.897
REMARK  1 active torsions:
REMARK  status: ('A' for Active; 'I' for Inactive)
REMARK    1  A    between atoms: C_3  and  C_7 
ROOT
ATOM      1  N   LIG d   1      10.940   1.262  24.457  0.00  0.00    -0.067 N 
ATOM      2  C   LIG d   1      11.249   1.653  23.019  0.00  0.00     0.222 C 
ATOM      3  C   LIG d   1      12.723   1.254  22.903  0.00  0.00     0.040 C 
ATOM      4  C   LIG d   1      12.939   0.092  23.869  0.00  0.00     0.030 C 
ATOM      5  C   LIG d   1      11.681  -0.020  24.715  0.00  0.00     0.235 C 
ATOM      6  C   LIG d   1       9.498   1.223  24.852  0.00  0.00     0.270 C 
ATOM      7  H   LIG d   1      11.379   1.980  25.045  0.00  0.00     0.280 HD
ENDROOT
BRANCH   2   8
ATOM      8  C   LIG d   1      10.324   1.074  21.979  0.00  0.00    -0.010 A 
ATOM      9  C   LIG d   1      10.494  -0.250  21.545  0.00  0.00     0.012 A 
ATOM     10  C   LIG d   1       9.661  -0.783  20.563  0.00  0.00     0.020 A 
ATOM     11  C   LIG d   1       8.678   0.028  20.031  0.00  0.00     0.116 A 
ATOM     12  N   LIG d   1       8.485   1.306  20.415  0.00  0.00    -0.273 NA
ATOM     13  C   LIG d   1       9.294   1.794  21.380  0.00  0.00     0.125 A 
ENDBRANCH   2   8
TORSDOF 1
ENDMDL
MODEL 8
REMARK VINA RESULT:      -4.4     23.966     25.487
REMARK  1 active torsions:
REMARK  status: ('A' for Active; 'I' for Inactive)
REMARK    1  A    between atoms: C_3  and  C_7 
ROOT
ATOM      1  N   LIG d   1      14.095  -2.248  -6.543  0.00  0.00    -0.067 N 
ATOM      2  C   LIG d   1      15.575  -2.512  -6.305  0.00  0.00     0.222 C 
ATOM      3  C   LIG d   1      16.170  -1.113  -6.490  0.00  0.00     0.040 C 
ATOM      4  C   LIG d   1      15.081  -0.119  -6.093  0.00  0.00     0.030 C 
ATOM      5  C   LIG d   1      13.798  -0.914  -5.920  0.00  0.00     0.235 C 
ATOM      6  C   LIG d   1      13.143  -3.332  -6.150  0.00  0.00     0.270 C 
ATOM      7  H   LIG d   1      13.991  -2.129  -7.559  0.00  0.00     0.280 HD
ENDROOT
BRANCH   2   8
ATOM      8  C   LIG d   1      15.905  -3.204  -5.006  0.00  0.00    -0.010 A 
ATOM      9  C   LIG d   1      16.103  -4.594  -4.980  0.00  0.00     0.012 A 
ATOM     10  C   LIG d   1      16.379  -5.243  -3.779  0.00  0.00     0.020 A 
ATOM     11  C   LIG d   1      16.443  -4.486  -2.626  0.00  0.00     0.116 A 
ATOM     12  N   LIG d   1      16.254  -3.150  -2.607  0.00  0.00    -0.273 NA
ATOM     13  C   LIG d   1      16.005  -2.541  -3.785  0.00  0.00     0.125 A 
ENDBRANCH   2   8
TORSDOF 1
ENDMDL
MODEL 9
REMARK VINA RESULT:      -4.4     27.384     28.497
REMARK  1 active torsions:
REMARK  status: ('A' for Active; 'I' for Inactive)
REMARK    1  A    between atoms: C_3  and  C_7 
ROOT
ATOM      1  N   LIG d   1      20.357   7.546  -4.185  0.00  0.00    -0.067 N 
ATOM      2  C   LIG d   1      20.409   6.970  -5.593  0.00  0.00     0.222 C 
ATOM      3  C   LIG d   1      21.905   6.687  -5.753  0.00  0.00     0.040 C 
ATOM      4  C   LIG d   1      22.450   6.406  -4.355  0.00  0.00     0.030 C 
ATOM      5  C   LIG d   1      21.348   6.764  -3.371  0.00  0.00     0.235 C 
ATOM      6  C   LIG d   1      19.006   7.667  -3.553  0.00  0.00     0.270 C 
ATOM      7  H   LIG d   1      20.725   8.503  -4.259  0.00  0.00     0.280 HD
ENDROOT
BRANCH   2   8
ATOM      8  C   LIG d   1      19.485   5.806  -5.848  0.00  0.00    -0.010 A 
ATOM      9  C   LIG d   1      18.320   5.986  -6.610  0.00  0.00     0.012 A 
ATOM     10  C   LIG d   1      17.446   4.922  -6.824  0.00  0.00     0.020 A 
ATOM     11  C   LIG d   1      17.757   3.699  -6.262  0.00  0.00     0.116 A 
ATOM     12  N   LIG d   1      18.862   3.485  -5.519  0.00  0.00    -0.273 NA
ATOM     13  C   LIG d   1      19.701   4.527  -5.340  0.00  0.00     0.125 A 
ENDBRANCH   2   8
TORSDOF 1
ENDMDL
