MODEL 1
REMARK minimizedAffinity -7.66835594REMARK CNNscore 0.369441777REMARK CNNaffinity 6.63304043REMARK  13 active torsions:
REMARK  status: ('A' for Active; 'I' for Inactive)
REMARK    1  A    between atoms: S_2  and  C_10 
REMARK    2  A    between atoms: S_2  and  C_13 
REMARK    3  A    between atoms: O_5  and  C_23 
REMARK    4  A    between atoms: C_7  and  C_10 
REMARK    5  A    between atoms: C_7  and  C_11 
REMARK    6  A    between atoms: C_11  and  C_12 
REMARK    7  A    between atoms: C_13  and  C_15 
REMARK    8  A    between atoms: C_13  and  C_14 
REMARK    9  A    between atoms: C_14  and  C_16 
REMARK   10  A    between atoms: C_16  and  C_19 
REMARK   11  A    between atoms: C_20  and  C_23 
REMARK   12  A    between atoms: C_21  and  C_28 
REMARK   13  A    between atoms: C_32  and  C_33 
ROOT
ATOM      1  C   LIG d   1       7.593  -0.683  21.898  0.00  0.00     0.080 C 
ENDROOT
BRANCH   1   2
ATOM      2  S   LIG d   1       9.415  -0.884  21.737  0.00  0.00    -0.159 SA
BRANCH   2   3
ATOM      3  C   LIG d   1       9.919   0.832  22.093  0.00  0.00     0.084 C 
BRANCH   3   4
ATOM      4  C   LIG d   1      10.050   1.034  23.590  0.00  0.00    -0.022 A 
ATOM      5  C   LIG d   1      10.893   2.203  24.070  0.00  0.00     0.011 A 
ATOM      6  C   LIG d   1      11.409   0.807  24.236  0.00  0.00     0.011 A 
BRANCH   4   7
ATOM      7  C   LIG d   1       8.800   0.716  24.408  0.00  0.00     0.123 C 
BRANCH   7   8
ATOM      8  C   LIG d   1       7.924   1.947  24.691  0.00  0.00     0.173 C 
ATOM      9  O   LIG d   1       7.306   2.415  23.691  0.00  0.00    -0.648 OA
ATOM     10  O   LIG d   1       7.920   2.342  25.890  0.00  0.00    -0.648 OA
ENDBRANCH   7   8
ENDBRANCH   4   7
ENDBRANCH   3   4
ENDBRANCH   2   3
ENDBRANCH   1   2
BRANCH   1  11
ATOM     11  C   LIG d   1       6.988  -0.006  20.675  0.00  0.00    -0.043 A 
ATOM     12  C   LIG d   1       5.740   0.640  20.730  0.00  0.00     0.019 A 
ATOM     13  C   LIG d   1       5.172   1.240  19.597  0.00  0.00    -0.036 A 
ATOM     14  C   LIG d   1       5.883   1.217  18.394  0.00  0.00     0.011 A 
ATOM     15  C   LIG d   1       7.135   0.603  18.327  0.00  0.00     0.001 A 
ATOM     16  C   LIG d   1       7.680  -0.011  19.456  0.00  0.00     0.008 A 
BRANCH  13  17
ATOM     17  C   LIG d   1       3.802   1.762  19.703  0.00  0.00     0.014 C 
ATOM     18  C   LIG d   1       3.193   2.109  20.849  0.00  0.00     0.032 C 
BRANCH  18  19
ATOM     19  C   LIG d   1       1.840   2.675  20.938  0.00  0.00     0.057 A 
ATOM     20  N   LIG d   1       0.844   1.773  20.759  0.00  0.00    -0.248 NA
ATOM     21  C   LIG d   1      -0.429   2.192  20.840  0.00  0.00     0.069 A 
ATOM     22  C   LIG d   1      -0.769   3.540  21.086  0.00  0.00    -0.007 A 
ATOM     23  C   LIG d   1      -1.456   1.273  20.683  0.00  0.00     0.056 A 
ATOM     24  C   LIG d   1       0.273   4.458  21.237  0.00  0.00     0.016 A 
ATOM     25  C   LIG d   1      -2.115   3.933  21.172  0.00  0.00     0.015 A 
ATOM     26  C   LIG d   1       1.592   4.023  21.156  0.00  0.00     0.032 A 
ATOM     27  C   LIG d   1      -3.129   2.991  21.013  0.00  0.00     0.025 A 
ATOM     28  C   LIG d   1      -2.792   1.664  20.768  0.00  0.00     0.036 A 
ATOM     29 CL   LIG d   1      -4.039   0.494  20.568  0.00  0.00    -0.084 Cl
ENDBRANCH  18  19
ENDBRANCH  13  17
ENDBRANCH   1  11
BRANCH   1  30
ATOM     30  C   LIG d   1       6.966  -2.067  22.166  0.00  0.00     0.025 C 
BRANCH  30  31
ATOM     31  C   LIG d   1       8.021  -3.101  22.599  0.00  0.00     0.040 C 
BRANCH  31  32
ATOM     32  C   LIG d   1       7.769  -3.655  23.989  0.00  0.00    -0.049 A 
ATOM     33  C   LIG d   1       6.932  -4.759  24.299  0.00  0.00    -0.019 A 
ATOM     34  C   LIG d   1       6.903  -5.182  25.653  0.00  0.00     0.011 A 
ATOM     35  C   LIG d   1       7.611  -4.528  26.663  0.00  0.00     0.001 A 
ATOM     36  C   LIG d   1       8.385  -3.423  26.355  0.00  0.00     0.001 A 
ATOM     37  C   LIG d   1       8.465  -2.997  25.034  0.00  0.00     0.007 A 
BRANCH  33  38
ATOM     38  C   LIG d   1       6.065  -5.524  23.281  0.00  0.00     0.078 C 
ATOM     39  C   LIG d   1       6.891  -6.197  22.172  0.00  0.00     0.051 C 
ATOM     40  C   LIG d   1       5.099  -6.505  23.951  0.00  0.00     0.051 C 
BRANCH  38  41
ATOM     41  O   LIG d   1       5.201  -4.604  22.573  0.00  0.00    -0.386 OA
ATOM     42  H   LIG d   1       5.773  -4.081  21.985  0.00  0.00     0.211 HD
ENDBRANCH  38  41
ENDBRANCH  33  38
ENDBRANCH  31  32
ENDBRANCH  30  31
ENDBRANCH   1  30
TORSDOF 13
ENDMDL
MODEL 2
REMARK minimizedAffinity -6.02719784REMARK CNNscore 0.286728978REMARK CNNaffinity 5.87810278REMARK  13 active torsions:
REMARK  status: ('A' for Active; 'I' for Inactive)
REMARK    1  A    between atoms: S_2  and  C_10 
REMARK    2  A    between atoms: S_2  and  C_13 
REMARK    3  A    between atoms: O_5  and  C_23 
REMARK    4  A    between atoms: C_7  and  C_10 
REMARK    5  A    between atoms: C_7  and  C_11 
REMARK    6  A    between atoms: C_11  and  C_12 
REMARK    7  A    between atoms: C_13  and  C_15 
REMARK    8  A    between atoms: C_13  and  C_14 
REMARK    9  A    between atoms: C_14  and  C_16 
REMARK   10  A    between atoms: C_16  and  C_19 
REMARK   11  A    between atoms: C_20  and  C_23 
REMARK   12  A    between atoms: C_21  and  C_28 
REMARK   13  A    between atoms: C_32  and  C_33 
ROOT
ATOM      1  C   LIG d   1       5.342  26.884 -13.693  0.00  0.00     0.080 C 
ENDROOT
BRANCH   1   2
ATOM      2  S   LIG d   1       6.692  27.114 -14.921  0.00  0.00    -0.159 SA
BRANCH   2   3
ATOM      3  C   LIG d   1       6.500  28.903 -15.218  0.00  0.00     0.084 C 
BRANCH   3   4
ATOM      4  C   LIG d   1       7.742  29.641 -14.760  0.00  0.00    -0.022 A 
ATOM      5  C   LIG d   1       8.696  28.904 -13.835  0.00  0.00     0.011 A 
ATOM      6  C   LIG d   1       7.860  30.021 -13.291  0.00  0.00     0.011 A 
BRANCH   4   7
ATOM      7  C   LIG d   1       8.378  30.565 -15.797  0.00  0.00     0.123 C 
BRANCH   7   8
ATOM      8  C   LIG d   1       8.443  29.951 -17.205  0.00  0.00     0.173 C 
ATOM      9  O   LIG d   1       9.375  29.115 -17.390  0.00  0.00    -0.648 OA
ATOM     10  O   LIG d   1       7.555  30.350 -18.010  0.00  0.00    -0.648 OA
ENDBRANCH   7   8
ENDBRANCH   4   7
ENDBRANCH   3   4
ENDBRANCH   2   3
ENDBRANCH   1   2
BRANCH   1  11
ATOM     11  C   LIG d   1       5.845  27.032 -12.263  0.00  0.00    -0.043 A 
ATOM     12  C   LIG d   1       5.537  28.163 -11.486  0.00  0.00     0.019 A 
ATOM     13  C   LIG d   1       6.023  28.311 -10.179  0.00  0.00    -0.036 A 
ATOM     14  C   LIG d   1       6.808  27.292  -9.632  0.00  0.00     0.011 A 
ATOM     15  C   LIG d   1       7.102  26.151 -10.380  0.00  0.00     0.001 A 
ATOM     16  C   LIG d   1       6.631  26.025 -11.688  0.00  0.00     0.008 A 
BRANCH  13  17
ATOM     17  C   LIG d   1       5.779  29.586  -9.489  0.00  0.00     0.014 C 
ATOM     18  C   LIG d   1       5.844  30.799 -10.061  0.00  0.00     0.032 C 
BRANCH  18  19
ATOM     19  C   LIG d   1       5.552  32.064  -9.373  0.00  0.00     0.057 A 
ATOM     20  N   LIG d   1       6.650  32.783  -9.035  0.00  0.00    -0.248 NA
ATOM     21  C   LIG d   1       6.484  33.964  -8.417  0.00  0.00     0.069 A 
ATOM     22  C   LIG d   1       5.210  34.476  -8.091  0.00  0.00    -0.007 A 
ATOM     23  C   LIG d   1       7.600  34.719  -8.089  0.00  0.00     0.056 A 
ATOM     24  C   LIG d   1       4.093  33.704  -8.421  0.00  0.00     0.016 A 
ATOM     25  C   LIG d   1       5.082  35.720  -7.453  0.00  0.00     0.015 A 
ATOM     26  C   LIG d   1       4.265  32.483  -9.064  0.00  0.00     0.032 A 
ATOM     27  C   LIG d   1       6.218  36.462  -7.135  0.00  0.00     0.025 A 
ATOM     28  C   LIG d   1       7.473  35.955  -7.455  0.00  0.00     0.036 A 
ATOM     29 CL   LIG d   1       8.881  36.864  -7.064  0.00  0.00    -0.084 Cl
ENDBRANCH  18  19
ENDBRANCH  13  17
ENDBRANCH   1  11
BRANCH   1  30
ATOM     30  C   LIG d   1       4.207  27.878 -14.016  0.00  0.00     0.025 C 
BRANCH  30  31
ATOM     31  C   LIG d   1       2.823  27.307 -13.655  0.00  0.00     0.040 C 
BRANCH  31  32
ATOM     32  C   LIG d   1       1.808  28.385 -13.322  0.00  0.00    -0.049 A 
ATOM     33  C   LIG d   1       0.403  28.278 -13.494  0.00  0.00    -0.019 A 
ATOM     34  C   LIG d   1      -0.384  29.364 -13.033  0.00  0.00     0.011 A 
ATOM     35  C   LIG d   1       0.173  30.520 -12.483  0.00  0.00     0.001 A 
ATOM     36  C   LIG d   1       1.547  30.631 -12.366  0.00  0.00     0.001 A 
ATOM     37  C   LIG d   1       2.351  29.575 -12.777  0.00  0.00     0.007 A 
BRANCH  33  38
ATOM     38  C   LIG d   1      -0.319  27.078 -14.134  0.00  0.00     0.078 C 
ATOM     39  C   LIG d   1      -1.826  27.046 -13.827  0.00  0.00     0.051 C 
ATOM     40  C   LIG d   1      -0.038  26.955 -15.635  0.00  0.00     0.051 C 
BRANCH  38  41
ATOM     41  O   LIG d   1       0.184  25.839 -13.578  0.00  0.00    -0.386 OA
ATOM     42  H   LIG d   1      -0.142  25.794 -12.662  0.00  0.00     0.211 HD
ENDBRANCH  38  41
ENDBRANCH  33  38
ENDBRANCH  31  32
ENDBRANCH  30  31
ENDBRANCH   1  30
TORSDOF 13
ENDMDL
MODEL 3
REMARK minimizedAffinity -6.68527842REMARK CNNscore 0.278179586REMARK CNNaffinity 5.55879211REMARK  13 active torsions:
REMARK  status: ('A' for Active; 'I' for Inactive)
REMARK    1  A    between atoms: S_2  and  C_10 
REMARK    2  A    between atoms: S_2  and  C_13 
REMARK    3  A    between atoms: O_5  and  C_23 
REMARK    4  A    between atoms: C_7  and  C_10 
REMARK    5  A    between atoms: C_7  and  C_11 
REMARK    6  A    between atoms: C_11  and  C_12 
REMARK    7  A    between atoms: C_13  and  C_15 
REMARK    8  A    between atoms: C_13  and  C_14 
REMARK    9  A    between atoms: C_14  and  C_16 
REMARK   10  A    between atoms: C_16  and  C_19 
REMARK   11  A    between atoms: C_20  and  C_23 
REMARK   12  A    between atoms: C_21  and  C_28 
REMARK   13  A    between atoms: C_32  and  C_33 
ROOT
ATOM      1  C   LIG d   1      24.988  -2.509  27.154  0.00  0.00     0.080 C 
ENDROOT
BRANCH   1   2
ATOM      2  S   LIG d   1      24.767  -4.302  27.498  0.00  0.00    -0.159 SA
BRANCH   2   3
ATOM      3  C   LIG d   1      26.161  -4.950  26.518  0.00  0.00     0.084 C 
BRANCH   3   4
ATOM      4  C   LIG d   1      26.077  -6.462  26.435  0.00  0.00    -0.022 A 
ATOM      5  C   LIG d   1      26.682  -7.263  27.575  0.00  0.00     0.011 A 
ATOM      6  C   LIG d   1      27.365  -7.250  26.242  0.00  0.00     0.011 A 
BRANCH   4   7
ATOM      7  C   LIG d   1      24.794  -7.016  25.819  0.00  0.00     0.123 C 
BRANCH   7   8
ATOM      8  C   LIG d   1      24.411  -6.342  24.491  0.00  0.00     0.173 C 
ATOM      9  O   LIG d   1      25.092  -6.699  23.485  0.00  0.00    -0.648 OA
ATOM     10  O   LIG d   1      23.460  -5.514  24.560  0.00  0.00    -0.648 OA
ENDBRANCH   7   8
ENDBRANCH   4   7
ENDBRANCH   3   4
ENDBRANCH   2   3
ENDBRANCH   1   2
BRANCH   1  11
ATOM     11  C   LIG d   1      23.776  -1.914  26.448  0.00  0.00    -0.043 A 
ATOM     12  C   LIG d   1      23.661  -1.922  25.046  0.00  0.00     0.019 A 
ATOM     13  C   LIG d   1      22.557  -1.351  24.396  0.00  0.00    -0.036 A 
ATOM     14  C   LIG d   1      21.537  -0.788  25.168  0.00  0.00     0.011 A 
ATOM     15  C   LIG d   1      21.623  -0.795  26.562  0.00  0.00     0.001 A 
ATOM     16  C   LIG d   1      22.737  -1.346  27.197  0.00  0.00     0.008 A 
BRANCH  13  17
ATOM     17  C   LIG d   1      22.584  -1.268  22.929  0.00  0.00     0.014 C 
ATOM     18  C   LIG d   1      23.487  -1.869  22.137  0.00  0.00     0.032 C 
BRANCH  18  19
ATOM     19  C   LIG d   1      23.475  -1.818  20.669  0.00  0.00     0.057 A 
ATOM     20  N   LIG d   1      24.581  -2.337  20.083  0.00  0.00    -0.248 NA
ATOM     21  C   LIG d   1      24.655  -2.353  18.741  0.00  0.00     0.069 A 
ATOM     22  C   LIG d   1      23.633  -1.831  17.920  0.00  0.00    -0.007 A 
ATOM     23  C   LIG d   1      25.772  -2.904  18.132  0.00  0.00     0.056 A 
ATOM     24  C   LIG d   1      22.516  -1.272  18.546  0.00  0.00     0.016 A 
ATOM     25  C   LIG d   1      23.748  -1.876  16.521  0.00  0.00     0.015 A 
ATOM     26  C   LIG d   1      22.437  -1.260  19.934  0.00  0.00     0.032 A 
ATOM     27  C   LIG d   1      24.878  -2.437  15.931  0.00  0.00     0.025 A 
ATOM     28  C   LIG d   1      25.886  -2.948  16.742  0.00  0.00     0.036 A 
ATOM     29 CL   LIG d   1      27.287  -3.641  16.021  0.00  0.00    -0.084 Cl
ENDBRANCH  18  19
ENDBRANCH  13  17
ENDBRANCH   1  11
BRANCH   1  30
ATOM     30  C   LIG d   1      25.299  -1.786  28.481  0.00  0.00     0.025 C 
BRANCH  30  31
ATOM     31  C   LIG d   1      25.940  -2.732  29.513  0.00  0.00     0.040 C 
BRANCH  31  32
ATOM     32  C   LIG d   1      25.163  -2.800  30.815  0.00  0.00    -0.049 A 
ATOM     33  C   LIG d   1      25.731  -2.865  32.114  0.00  0.00    -0.019 A 
ATOM     34  C   LIG d   1      24.832  -2.827  33.211  0.00  0.00     0.011 A 
ATOM     35  C   LIG d   1      23.446  -2.782  33.048  0.00  0.00     0.001 A 
ATOM     36  C   LIG d   1      22.904  -2.768  31.775  0.00  0.00     0.001 A 
ATOM     37  C   LIG d   1      23.753  -2.772  30.676  0.00  0.00     0.007 A 
BRANCH  33  38
ATOM     38  C   LIG d   1      27.238  -2.970  32.414  0.00  0.00     0.078 C 
ATOM     39  C   LIG d   1      28.046  -1.780  31.871  0.00  0.00     0.051 C 
ATOM     40  C   LIG d   1      27.525  -3.228  33.897  0.00  0.00     0.051 C 
BRANCH  38  41
ATOM     41  O   LIG d   1      27.801  -4.120  31.740  0.00  0.00    -0.386 OA
ATOM     42  H   LIG d   1      27.808  -3.910  30.790  0.00  0.00     0.211 HD
ENDBRANCH  38  41
ENDBRANCH  33  38
ENDBRANCH  31  32
ENDBRANCH  30  31
ENDBRANCH   1  30
TORSDOF 13
ENDMDL
MODEL 4
REMARK minimizedAffinity -6.24987936REMARK CNNscore 0.269204319REMARK CNNaffinity 5.48138142REMARK  13 active torsions:
REMARK  status: ('A' for Active; 'I' for Inactive)
REMARK    1  A    between atoms: S_2  and  C_10 
REMARK    2  A    between atoms: S_2  and  C_13 
REMARK    3  A    between atoms: O_5  and  C_23 
REMARK    4  A    between atoms: C_7  and  C_10 
REMARK    5  A    between atoms: C_7  and  C_11 
REMARK    6  A    between atoms: C_11  and  C_12 
REMARK    7  A    between atoms: C_13  and  C_15 
REMARK    8  A    between atoms: C_13  and  C_14 
REMARK    9  A    between atoms: C_14  and  C_16 
REMARK   10  A    between atoms: C_16  and  C_19 
REMARK   11  A    between atoms: C_20  and  C_23 
REMARK   12  A    between atoms: C_21  and  C_28 
REMARK   13  A    between atoms: C_32  and  C_33 
ROOT
ATOM      1  C   LIG d   1      25.118  -2.560  25.348  0.00  0.00     0.080 C 
ENDROOT
BRANCH   1   2
ATOM      2  S   LIG d   1      25.287  -3.533  26.900  0.00  0.00    -0.159 SA
BRANCH   2   3
ATOM      3  C   LIG d   1      26.580  -4.700  26.360  0.00  0.00     0.084 C 
BRANCH   3   4
ATOM      4  C   LIG d   1      26.140  -6.124  26.634  0.00  0.00    -0.022 A 
ATOM      5  C   LIG d   1      26.856  -6.880  27.741  0.00  0.00     0.011 A 
ATOM      6  C   LIG d   1      27.106  -7.256  26.313  0.00  0.00     0.011 A 
BRANCH   4   7
ATOM      7  C   LIG d   1      24.643  -6.390  26.487  0.00  0.00     0.123 C 
BRANCH   7   8
ATOM      8  C   LIG d   1      24.222  -6.741  25.051  0.00  0.00     0.173 C 
ATOM      9  O   LIG d   1      24.065  -7.975  24.818  0.00  0.00    -0.648 OA
ATOM     10  O   LIG d   1      24.078  -5.756  24.274  0.00  0.00    -0.648 OA
ENDBRANCH   7   8
ENDBRANCH   4   7
ENDBRANCH   3   4
ENDBRANCH   2   3
ENDBRANCH   1   2
BRANCH   1  11
ATOM     11  C   LIG d   1      23.712  -1.994  25.185  0.00  0.00    -0.043 A 
ATOM     12  C   LIG d   1      23.487  -0.618  25.002  0.00  0.00     0.019 A 
ATOM     13  C   LIG d   1      22.192  -0.096  24.879  0.00  0.00    -0.036 A 
ATOM     14  C   LIG d   1      21.105  -0.973  24.911  0.00  0.00     0.011 A 
ATOM     15  C   LIG d   1      21.311  -2.346  25.066  0.00  0.00     0.001 A 
ATOM     16  C   LIG d   1      22.604  -2.852  25.210  0.00  0.00     0.008 A 
BRANCH  13  17
ATOM     17  C   LIG d   1      22.035   1.365  24.840  0.00  0.00     0.014 C 
ATOM     18  C   LIG d   1      22.938   2.252  25.289  0.00  0.00     0.032 C 
BRANCH  18  19
ATOM     19  C   LIG d   1      22.791   3.711  25.201  0.00  0.00     0.057 A 
ATOM     20  N   LIG d   1      22.471   4.312  26.372  0.00  0.00    -0.248 NA
ATOM     21  C   LIG d   1      22.333   5.648  26.397  0.00  0.00     0.069 A 
ATOM     22  C   LIG d   1      22.490   6.447  25.244  0.00  0.00    -0.007 A 
ATOM     23  C   LIG d   1      22.029   6.275  27.596  0.00  0.00     0.056 A 
ATOM     24  C   LIG d   1      22.789   5.804  24.041  0.00  0.00     0.016 A 
ATOM     25  C   LIG d   1      22.345   7.842  25.318  0.00  0.00     0.015 A 
ATOM     26  C   LIG d   1      22.936   4.421  24.016  0.00  0.00     0.032 A 
ATOM     27  C   LIG d   1      22.043   8.450  26.534  0.00  0.00     0.025 A 
ATOM     28  C   LIG d   1      21.886   7.661  27.668  0.00  0.00     0.036 A 
ATOM     29 CL   LIG d   1      21.509   8.404  29.175  0.00  0.00    -0.084 Cl
ENDBRANCH  18  19
ENDBRANCH  13  17
ENDBRANCH   1  11
BRANCH   1  30
ATOM     30  C   LIG d   1      26.193  -1.454  25.339  0.00  0.00     0.025 C 
BRANCH  30  31
ATOM     31  C   LIG d   1      26.519  -0.958  26.760  0.00  0.00     0.040 C 
BRANCH  31  32
ATOM     32  C   LIG d   1      26.215   0.516  26.955  0.00  0.00    -0.049 A 
ATOM     33  C   LIG d   1      25.423   1.065  27.997  0.00  0.00    -0.019 A 
ATOM     34  C   LIG d   1      25.336   2.480  28.060  0.00  0.00     0.011 A 
ATOM     35  C   LIG d   1      25.945   3.315  27.121  0.00  0.00     0.001 A 
ATOM     36  C   LIG d   1      26.674   2.764  26.082  0.00  0.00     0.001 A 
ATOM     37  C   LIG d   1      26.809   1.383  26.005  0.00  0.00     0.007 A 
BRANCH  33  38
ATOM     38  C   LIG d   1      24.663   0.243  29.055  0.00  0.00     0.078 C 
ATOM     39  C   LIG d   1      23.474  -0.538  28.472  0.00  0.00     0.051 C 
ATOM     40  C   LIG d   1      25.590  -0.655  29.880  0.00  0.00     0.051 C 
BRANCH  38  41
ATOM     41  O   LIG d   1      24.063   1.126  30.033  0.00  0.00    -0.386 OA
ATOM     42  H   LIG d   1      23.332   1.584  29.583  0.00  0.00     0.211 HD
ENDBRANCH  38  41
ENDBRANCH  33  38
ENDBRANCH  31  32
ENDBRANCH  30  31
ENDBRANCH   1  30
TORSDOF 13
ENDMDL
MODEL 5
REMARK minimizedAffinity -5.64607334REMARK CNNscore 0.228558645REMARK CNNaffinity 5.80505943REMARK  13 active torsions:
REMARK  status: ('A' for Active; 'I' for Inactive)
REMARK    1  A    between atoms: S_2  and  C_10 
REMARK    2  A    between atoms: S_2  and  C_13 
REMARK    3  A    between atoms: O_5  and  C_23 
REMARK    4  A    between atoms: C_7  and  C_10 
REMARK    5  A    between atoms: C_7  and  C_11 
REMARK    6  A    between atoms: C_11  and  C_12 
REMARK    7  A    between atoms: C_13  and  C_15 
REMARK    8  A    between atoms: C_13  and  C_14 
REMARK    9  A    between atoms: C_14  and  C_16 
REMARK   10  A    between atoms: C_16  and  C_19 
REMARK   11  A    between atoms: C_20  and  C_23 
REMARK   12  A    between atoms: C_21  and  C_28 
REMARK   13  A    between atoms: C_32  and  C_33 
ROOT
ATOM      1  C   LIG d   1       5.241  27.062 -13.906  0.00  0.00     0.080 C 
ENDROOT
BRANCH   1   2
ATOM      2  S   LIG d   1       6.593  27.320 -15.127  0.00  0.00    -0.159 SA
BRANCH   2   3
ATOM      3  C   LIG d   1       6.439  29.125 -15.339  0.00  0.00     0.084 C 
BRANCH   3   4
ATOM      4  C   LIG d   1       7.687  29.815 -14.825  0.00  0.00    -0.022 A 
ATOM      5  C   LIG d   1       8.560  29.050 -13.846  0.00  0.00     0.011 A 
ATOM      6  C   LIG d   1       7.745  30.207 -13.355  0.00  0.00     0.011 A 
BRANCH   4   7
ATOM      7  C   LIG d   1       8.413  30.700 -15.837  0.00  0.00     0.123 C 
BRANCH   7   8
ATOM      8  C   LIG d   1       8.431  30.116 -17.258  0.00  0.00     0.173 C 
ATOM      9  O   LIG d   1       9.246  29.165 -17.444  0.00  0.00    -0.648 OA
ATOM     10  O   LIG d   1       7.627  30.651 -18.072  0.00  0.00    -0.648 OA
ENDBRANCH   7   8
ENDBRANCH   4   7
ENDBRANCH   3   4
ENDBRANCH   2   3
ENDBRANCH   1   2
BRANCH   1  11
ATOM     11  C   LIG d   1       5.760  27.083 -12.474  0.00  0.00    -0.043 A 
ATOM     12  C   LIG d   1       5.528  28.175 -11.620  0.00  0.00     0.019 A 
ATOM     13  C   LIG d   1       6.029  28.204 -10.310  0.00  0.00    -0.036 A 
ATOM     14  C   LIG d   1       6.751  27.104  -9.840  0.00  0.00     0.011 A 
ATOM     15  C   LIG d   1       6.969  25.999 -10.666  0.00  0.00     0.001 A 
ATOM     16  C   LIG d   1       6.484  25.991 -11.975  0.00  0.00     0.008 A 
BRANCH  13  17
ATOM     17  C   LIG d   1       5.869  29.442  -9.535  0.00  0.00     0.014 C 
ATOM     18  C   LIG d   1       5.955  30.685 -10.036  0.00  0.00     0.032 C 
BRANCH  18  19
ATOM     19  C   LIG d   1       5.746  31.915  -9.260  0.00  0.00     0.057 A 
ATOM     20  N   LIG d   1       5.452  31.708  -7.953  0.00  0.00    -0.248 NA
ATOM     21  C   LIG d   1       5.262  32.773  -7.157  0.00  0.00     0.069 A 
ATOM     22  C   LIG d   1       5.339  34.099  -7.634  0.00  0.00    -0.007 A 
ATOM     23  C   LIG d   1       4.984  32.573  -5.813  0.00  0.00     0.056 A 
ATOM     24  C   LIG d   1       5.613  34.289  -8.991  0.00  0.00     0.016 A 
ATOM     25  C   LIG d   1       5.141  35.184  -6.764  0.00  0.00     0.015 A 
ATOM     26  C   LIG d   1       5.813  33.186  -9.814  0.00  0.00     0.032 A 
ATOM     27  C   LIG d   1       4.866  34.957  -5.417  0.00  0.00     0.025 A 
ATOM     28  C   LIG d   1       4.789  33.650  -4.949  0.00  0.00     0.036 A 
ATOM     29 CL   LIG d   1       4.446  33.362  -3.287  0.00  0.00    -0.084 Cl
ENDBRANCH  18  19
ENDBRANCH  13  17
ENDBRANCH   1  11
BRANCH   1  30
ATOM     30  C   LIG d   1       4.152  28.128 -14.144  0.00  0.00     0.025 C 
BRANCH  30  31
ATOM     31  C   LIG d   1       2.770  27.494 -14.385  0.00  0.00     0.040 C 
BRANCH  31  32
ATOM     32  C   LIG d   1       1.751  28.483 -14.920  0.00  0.00    -0.049 A 
ATOM     33  C   LIG d   1       0.440  28.161 -15.359  0.00  0.00    -0.019 A 
ATOM     34  C   LIG d   1      -0.394  29.245 -15.737  0.00  0.00     0.011 A 
ATOM     35  C   LIG d   1       0.045  30.571 -15.738  0.00  0.00     0.001 A 
ATOM     36  C   LIG d   1       1.341  30.865 -15.352  0.00  0.00     0.001 A 
ATOM     37  C   LIG d   1       2.179  29.833 -14.946  0.00  0.00     0.007 A 
BRANCH  33  38
ATOM     38  C   LIG d   1      -0.136  26.736 -15.452  0.00  0.00     0.078 C 
ATOM     39  C   LIG d   1       0.649  25.829 -16.414  0.00  0.00     0.051 C 
ATOM     40  C   LIG d   1      -0.323  26.087 -14.077  0.00  0.00     0.051 C 
BRANCH  38  41
ATOM     41  O   LIG d   1      -1.472  26.774 -16.009  0.00  0.00    -0.386 OA
ATOM     42  H   LIG d   1      -1.374  27.004 -16.950  0.00  0.00     0.211 HD
ENDBRANCH  38  41
ENDBRANCH  33  38
ENDBRANCH  31  32
ENDBRANCH  30  31
ENDBRANCH   1  30
TORSDOF 13
ENDMDL
MODEL 6
REMARK minimizedAffinity -7.36613035REMARK CNNscore 0.207455978REMARK CNNaffinity 6.48395443REMARK  13 active torsions:
REMARK  status: ('A' for Active; 'I' for Inactive)
REMARK    1  A    between atoms: S_2  and  C_10 
REMARK    2  A    between atoms: S_2  and  C_13 
REMARK    3  A    between atoms: O_5  and  C_23 
REMARK    4  A    between atoms: C_7  and  C_10 
REMARK    5  A    between atoms: C_7  and  C_11 
REMARK    6  A    between atoms: C_11  and  C_12 
REMARK    7  A    between atoms: C_13  and  C_15 
REMARK    8  A    between atoms: C_13  and  C_14 
REMARK    9  A    between atoms: C_14  and  C_16 
REMARK   10  A    between atoms: C_16  and  C_19 
REMARK   11  A    between atoms: C_20  and  C_23 
REMARK   12  A    between atoms: C_21  and  C_28 
REMARK   13  A    between atoms: C_32  and  C_33 
ROOT
ATOM      1  C   LIG d   1       7.977  -0.452  22.585  0.00  0.00     0.080 C 
ENDROOT
BRANCH   1   2
ATOM      2  S   LIG d   1       8.448  -2.230  22.563  0.00  0.00    -0.159 SA
BRANCH   2   3
ATOM      3  C   LIG d   1       7.227  -2.858  23.763  0.00  0.00     0.084 C 
BRANCH   3   4
ATOM      4  C   LIG d   1       7.413  -4.350  23.959  0.00  0.00    -0.022 A 
ATOM      5  C   LIG d   1       6.962  -4.946  25.282  0.00  0.00     0.011 A 
ATOM      6  C   LIG d   1       8.426  -4.824  24.991  0.00  0.00     0.011 A 
BRANCH   4   7
ATOM      7  C   LIG d   1       7.194  -5.209  22.715  0.00  0.00     0.123 C 
BRANCH   7   8
ATOM      8  C   LIG d   1       5.861  -4.926  22.004  0.00  0.00     0.173 C 
ATOM      9  O   LIG d   1       5.957  -4.376  20.868  0.00  0.00    -0.648 OA
ATOM     10  O   LIG d   1       4.826  -5.281  22.635  0.00  0.00    -0.648 OA
ENDBRANCH   7   8
ENDBRANCH   4   7
ENDBRANCH   3   4
ENDBRANCH   2   3
ENDBRANCH   1   2
BRANCH   1  11
ATOM     11  C   LIG d   1       7.406  -0.001  21.246  0.00  0.00    -0.043 A 
ATOM     12  C   LIG d   1       6.147   0.618  21.151  0.00  0.00     0.019 A 
ATOM     13  C   LIG d   1       5.611   1.008  19.915  0.00  0.00    -0.036 A 
ATOM     14  C   LIG d   1       6.366   0.800  18.757  0.00  0.00     0.011 A 
ATOM     15  C   LIG d   1       7.629   0.211  18.836  0.00  0.00     0.001 A 
ATOM     16  C   LIG d   1       8.143  -0.193  20.069  0.00  0.00     0.008 A 
BRANCH  13  17
ATOM     17  C   LIG d   1       4.230   1.510  19.886  0.00  0.00     0.014 C 
ATOM     18  C   LIG d   1       3.579   2.043  20.933  0.00  0.00     0.032 C 
BRANCH  18  19
ATOM     19  C   LIG d   1       2.215   2.586  20.880  0.00  0.00     0.057 A 
ATOM     20  N   LIG d   1       1.243   1.646  20.799  0.00  0.00    -0.248 NA
ATOM     21  C   LIG d   1      -0.040   2.043  20.764  0.00  0.00     0.069 A 
ATOM     22  C   LIG d   1      -0.412   3.404  20.790  0.00  0.00    -0.007 A 
ATOM     23  C   LIG d   1      -1.044   1.088  20.705  0.00  0.00     0.056 A 
ATOM     24  C   LIG d   1       0.608   4.358  20.843  0.00  0.00     0.016 A 
ATOM     25  C   LIG d   1      -1.766   3.775  20.760  0.00  0.00     0.015 A 
ATOM     26  C   LIG d   1       1.935   3.946  20.883  0.00  0.00     0.032 A 
ATOM     27  C   LIG d   1      -2.757   2.798  20.704  0.00  0.00     0.025 A 
ATOM     28  C   LIG d   1      -2.389   1.457  20.676  0.00  0.00     0.036 A 
ATOM     29 CL   LIG d   1      -3.607   0.243  20.604  0.00  0.00    -0.084 Cl
ENDBRANCH  18  19
ENDBRANCH  13  17
ENDBRANCH   1  11
BRANCH   1  30
ATOM     30  C   LIG d   1       6.989  -0.217  23.746  0.00  0.00     0.025 C 
BRANCH  30  31
ATOM     31  C   LIG d   1       7.425   0.956  24.643  0.00  0.00     0.040 C 
BRANCH  31  32
ATOM     32  C   LIG d   1       7.210   2.310  23.991  0.00  0.00    -0.049 A 
ATOM     33  C   LIG d   1       8.231   3.145  23.466  0.00  0.00    -0.019 A 
ATOM     34  C   LIG d   1       7.815   4.333  22.811  0.00  0.00     0.011 A 
ATOM     35  C   LIG d   1       6.475   4.714  22.720  0.00  0.00     0.001 A 
ATOM     36  C   LIG d   1       5.494   3.914  23.278  0.00  0.00     0.001 A 
ATOM     37  C   LIG d   1       5.859   2.726  23.901  0.00  0.00     0.007 A 
BRANCH  33  38
ATOM     38  C   LIG d   1       9.742   2.856  23.554  0.00  0.00     0.078 C 
ATOM     39  C   LIG d   1      10.274   2.062  22.350  0.00  0.00     0.051 C 
ATOM     40  C   LIG d   1      10.567   4.118  23.819  0.00  0.00     0.051 C 
BRANCH  38  41
ATOM     41  O   LIG d   1      10.020   2.006  24.692  0.00  0.00    -0.386 OA
ATOM     42  H   LIG d   1       9.667   1.125  24.475  0.00  0.00     0.211 HD
ENDBRANCH  38  41
ENDBRANCH  33  38
ENDBRANCH  31  32
ENDBRANCH  30  31
ENDBRANCH   1  30
TORSDOF 13
ENDMDL
MODEL 7
REMARK minimizedAffinity -7.83558321REMARK CNNscore 0.204628035REMARK CNNaffinity 6.38750219REMARK  13 active torsions:
REMARK  status: ('A' for Active; 'I' for Inactive)
REMARK    1  A    between atoms: S_2  and  C_10 
REMARK    2  A    between atoms: S_2  and  C_13 
REMARK    3  A    between atoms: O_5  and  C_23 
REMARK    4  A    between atoms: C_7  and  C_10 
REMARK    5  A    between atoms: C_7  and  C_11 
REMARK    6  A    between atoms: C_11  and  C_12 
REMARK    7  A    between atoms: C_13  and  C_15 
REMARK    8  A    between atoms: C_13  and  C_14 
REMARK    9  A    between atoms: C_14  and  C_16 
REMARK   10  A    between atoms: C_16  and  C_19 
REMARK   11  A    between atoms: C_20  and  C_23 
REMARK   12  A    between atoms: C_21  and  C_28 
REMARK   13  A    between atoms: C_32  and  C_33 
ROOT
ATOM      1  C   LIG d   1       9.146  19.943   0.369  0.00  0.00     0.080 C 
ENDROOT
BRANCH   1   2
ATOM      2  S   LIG d   1       8.191  18.377   0.506  0.00  0.00    -0.159 SA
BRANCH   2   3
ATOM      3  C   LIG d   1       9.420  17.376   1.408  0.00  0.00     0.084 C 
BRANCH   3   4
ATOM      4  C   LIG d   1       8.717  16.356   2.281  0.00  0.00    -0.022 A 
ATOM      5  C   LIG d   1       7.258  16.608   2.621  0.00  0.00     0.011 A 
ATOM      6  C   LIG d   1       8.299  16.768   3.685  0.00  0.00     0.011 A 
BRANCH   4   7
ATOM      7  C   LIG d   1       9.119  14.901   2.046  0.00  0.00     0.123 C 
BRANCH   7   8
ATOM      8  C   LIG d   1      10.133  14.373   3.074  0.00  0.00     0.173 C 
ATOM      9  O   LIG d   1      11.261  14.946   3.067  0.00  0.00    -0.648 OA
ATOM     10  O   LIG d   1       9.718  13.432   3.808  0.00  0.00    -0.648 OA
ENDBRANCH   7   8
ENDBRANCH   4   7
ENDBRANCH   3   4
ENDBRANCH   2   3
ENDBRANCH   1   2
BRANCH   1  11
ATOM     11  C   LIG d   1       8.337  21.042  -0.309  0.00  0.00    -0.043 A 
ATOM     12  C   LIG d   1       8.809  22.365  -0.385  0.00  0.00     0.019 A 
ATOM     13  C   LIG d   1       8.051  23.381  -0.985  0.00  0.00    -0.036 A 
ATOM     14  C   LIG d   1       6.812  23.058  -1.545  0.00  0.00     0.011 A 
ATOM     15  C   LIG d   1       6.341  21.744  -1.501  0.00  0.00     0.001 A 
ATOM     16  C   LIG d   1       7.093  20.745  -0.881  0.00  0.00     0.008 A 
BRANCH  13  17
ATOM     17  C   LIG d   1       8.548  24.762  -0.892  0.00  0.00     0.014 C 
ATOM     18  C   LIG d   1       7.888  25.784  -0.324  0.00  0.00     0.032 C 
BRANCH  18  19
ATOM     19  C   LIG d   1       8.414  27.149  -0.195  0.00  0.00     0.057 A 
ATOM     20  N   LIG d   1       9.300  27.313   0.818  0.00  0.00    -0.248 NA
ATOM     21  C   LIG d   1       9.851  28.524   1.005  0.00  0.00     0.069 A 
ATOM     22  C   LIG d   1       9.528  29.636   0.199  0.00  0.00    -0.007 A 
ATOM     23  C   LIG d   1      10.776  28.696   2.024  0.00  0.00     0.056 A 
ATOM     24  C   LIG d   1       8.590  29.452  -0.820  0.00  0.00     0.016 A 
ATOM     25  C   LIG d   1      10.135  30.882   0.425  0.00  0.00     0.015 A 
ATOM     26  C   LIG d   1       8.022  28.198  -1.016  0.00  0.00     0.032 A 
ATOM     27  C   LIG d   1      11.064  31.030   1.452  0.00  0.00     0.025 A 
ATOM     28  C   LIG d   1      11.379  29.933   2.248  0.00  0.00     0.036 A 
ATOM     29 CL   LIG d   1      12.524  30.109   3.521  0.00  0.00    -0.084 Cl
ENDBRANCH  18  19
ENDBRANCH  13  17
ENDBRANCH   1  11
BRANCH   1  30
ATOM     30  C   LIG d   1       9.621  20.355   1.777  0.00  0.00     0.025 C 
BRANCH  30  31
ATOM     31  C   LIG d   1      11.156  20.445   1.862  0.00  0.00     0.040 C 
BRANCH  31  32
ATOM     32  C   LIG d   1      11.633  21.429   2.915  0.00  0.00    -0.049 A 
ATOM     33  C   LIG d   1      12.322  21.091   4.109  0.00  0.00    -0.019 A 
ATOM     34  C   LIG d   1      12.767  22.167   4.920  0.00  0.00     0.011 A 
ATOM     35  C   LIG d   1      12.505  23.504   4.610  0.00  0.00     0.001 A 
ATOM     36  C   LIG d   1      11.790  23.816   3.467  0.00  0.00     0.001 A 
ATOM     37  C   LIG d   1      11.365  22.791   2.631  0.00  0.00     0.007 A 
BRANCH  33  38
ATOM     38  C   LIG d   1      12.621  19.655   4.581  0.00  0.00     0.078 C 
ATOM     39  C   LIG d   1      13.321  19.604   5.949  0.00  0.00     0.051 C 
ATOM     40  C   LIG d   1      11.385  18.753   4.535  0.00  0.00     0.051 C 
BRANCH  38  41
ATOM     41  O   LIG d   1      13.557  19.020   3.678  0.00  0.00    -0.386 OA
ATOM     42  H   LIG d   1      14.417  19.452   3.819  0.00  0.00     0.211 HD
ENDBRANCH  38  41
ENDBRANCH  33  38
ENDBRANCH  31  32
ENDBRANCH  30  31
ENDBRANCH   1  30
TORSDOF 13
ENDMDL
MODEL 8
REMARK minimizedAffinity -6.93797874REMARK CNNscore 0.174665496REMARK CNNaffinity 5.80467415REMARK  13 active torsions:
REMARK  status: ('A' for Active; 'I' for Inactive)
REMARK    1  A    between atoms: S_2  and  C_10 
REMARK    2  A    between atoms: S_2  and  C_13 
REMARK    3  A    between atoms: O_5  and  C_23 
REMARK    4  A    between atoms: C_7  and  C_10 
REMARK    5  A    between atoms: C_7  and  C_11 
REMARK    6  A    between atoms: C_11  and  C_12 
REMARK    7  A    between atoms: C_13  and  C_15 
REMARK    8  A    between atoms: C_13  and  C_14 
REMARK    9  A    between atoms: C_14  and  C_16 
REMARK   10  A    between atoms: C_16  and  C_19 
REMARK   11  A    between atoms: C_20  and  C_23 
REMARK   12  A    between atoms: C_21  and  C_28 
REMARK   13  A    between atoms: C_32  and  C_33 
ROOT
ATOM      1  C   LIG d   1      25.364  -1.059  20.895  0.00  0.00     0.080 C 
ENDROOT
BRANCH   1   2
ATOM      2  S   LIG d   1      24.182  -2.117  19.963  0.00  0.00    -0.159 SA
BRANCH   2   3
ATOM      3  C   LIG d   1      25.344  -2.848  18.763  0.00  0.00     0.084 C 
BRANCH   3   4
ATOM      4  C   LIG d   1      24.853  -4.216  18.333  0.00  0.00    -0.022 A 
ATOM      5  C   LIG d   1      24.364  -5.160  19.418  0.00  0.00     0.011 A 
ATOM      6  C   LIG d   1      25.667  -5.438  18.734  0.00  0.00     0.011 A 
BRANCH   4   7
ATOM      7  C   LIG d   1      24.099  -4.256  17.005  0.00  0.00     0.123 C 
BRANCH   7   8
ATOM      8  C   LIG d   1      24.004  -2.886  16.314  0.00  0.00     0.173 C 
ATOM      9  O   LIG d   1      25.039  -2.523  15.683  0.00  0.00    -0.648 OA
ATOM     10  O   LIG d   1      22.901  -2.287  16.453  0.00  0.00    -0.648 OA
ENDBRANCH   7   8
ENDBRANCH   4   7
ENDBRANCH   3   4
ENDBRANCH   2   3
ENDBRANCH   1   2
BRANCH   1  11
ATOM     11  C   LIG d   1      25.634   0.257  20.176  0.00  0.00    -0.043 A 
ATOM     12  C   LIG d   1      25.815   0.313  18.782  0.00  0.00     0.019 A 
ATOM     13  C   LIG d   1      26.090   1.521  18.126  0.00  0.00    -0.036 A 
ATOM     14  C   LIG d   1      26.154   2.698  18.877  0.00  0.00     0.011 A 
ATOM     15  C   LIG d   1      25.951   2.664  20.258  0.00  0.00     0.001 A 
ATOM     16  C   LIG d   1      25.700   1.452  20.904  0.00  0.00     0.008 A 
BRANCH  13  17
ATOM     17  C   LIG d   1      26.412   1.473  16.693  0.00  0.00     0.014 C 
ATOM     18  C   LIG d   1      25.538   1.194  15.712  0.00  0.00     0.032 C 
BRANCH  18  19
ATOM     19  C   LIG d   1      25.861   1.196  14.279  0.00  0.00     0.057 A 
ATOM     20  N   LIG d   1      25.867  -0.032  13.706  0.00  0.00    -0.248 NA
ATOM     21  C   LIG d   1      26.134  -0.132  12.393  0.00  0.00     0.069 A 
ATOM     22  C   LIG d   1      26.428   0.992  11.593  0.00  0.00    -0.007 A 
ATOM     23  C   LIG d   1      26.119  -1.382  11.793  0.00  0.00     0.056 A 
ATOM     24  C   LIG d   1      26.447   2.245  12.210  0.00  0.00     0.016 A 
ATOM     25  C   LIG d   1      26.693   0.842  10.222  0.00  0.00     0.015 A 
ATOM     26  C   LIG d   1      26.166   2.349  13.568  0.00  0.00     0.032 A 
ATOM     27  C   LIG d   1      26.669  -0.423   9.640  0.00  0.00     0.025 A 
ATOM     28  C   LIG d   1      26.382  -1.531  10.431  0.00  0.00     0.036 A 
ATOM     29 CL   LIG d   1      26.353  -3.098   9.720  0.00  0.00    -0.084 Cl
ENDBRANCH  18  19
ENDBRANCH  13  17
ENDBRANCH   1  11
BRANCH   1  30
ATOM     30  C   LIG d   1      24.813  -0.841  22.319  0.00  0.00     0.025 C 
BRANCH  30  31
ATOM     31  C   LIG d   1      24.426  -2.169  22.995  0.00  0.00     0.040 C 
BRANCH  31  32
ATOM     32  C   LIG d   1      23.130  -2.076  23.780  0.00  0.00    -0.049 A 
ATOM     33  C   LIG d   1      22.817  -2.820  24.948  0.00  0.00    -0.019 A 
ATOM     34  C   LIG d   1      21.589  -2.519  25.590  0.00  0.00     0.011 A 
ATOM     35  C   LIG d   1      20.685  -1.579  25.089  0.00  0.00     0.001 A 
ATOM     36  C   LIG d   1      20.982  -0.896  23.923  0.00  0.00     0.001 A 
ATOM     37  C   LIG d   1      22.191  -1.140  23.282  0.00  0.00     0.007 A 
BRANCH  33  38
ATOM     38  C   LIG d   1      23.708  -3.916  25.563  0.00  0.00     0.078 C 
ATOM     39  C   LIG d   1      24.117  -4.999  24.550  0.00  0.00     0.051 C 
ATOM     40  C   LIG d   1      24.917  -3.341  26.307  0.00  0.00     0.051 C 
BRANCH  38  41
ATOM     41  O   LIG d   1      22.977  -4.639  26.581  0.00  0.00    -0.386 OA
ATOM     42  H   LIG d   1      22.308  -5.172  26.117  0.00  0.00     0.211 HD
ENDBRANCH  38  41
ENDBRANCH  33  38
ENDBRANCH  31  32
ENDBRANCH  30  31
ENDBRANCH   1  30
TORSDOF 13
ENDMDL
MODEL 9
REMARK minimizedAffinity -6.49003649REMARK CNNscore 0.17096068REMARK CNNaffinity 5.71892548REMARK  13 active torsions:
REMARK  status: ('A' for Active; 'I' for Inactive)
REMARK    1  A    between atoms: S_2  and  C_10 
REMARK    2  A    between atoms: S_2  and  C_13 
REMARK    3  A    between atoms: O_5  and  C_23 
REMARK    4  A    between atoms: C_7  and  C_10 
REMARK    5  A    between atoms: C_7  and  C_11 
REMARK    6  A    between atoms: C_11  and  C_12 
REMARK    7  A    between atoms: C_13  and  C_15 
REMARK    8  A    between atoms: C_13  and  C_14 
REMARK    9  A    between atoms: C_14  and  C_16 
REMARK   10  A    between atoms: C_16  and  C_19 
REMARK   11  A    between atoms: C_20  and  C_23 
REMARK   12  A    between atoms: C_21  and  C_28 
REMARK   13  A    between atoms: C_32  and  C_33 
ROOT
ATOM      1  C   LIG d   1      24.463  -0.977  26.945  0.00  0.00     0.080 C 
ENDROOT
BRANCH   1   2
ATOM      2  S   LIG d   1      25.402   0.589  26.723  0.00  0.00    -0.159 SA
BRANCH   2   3
ATOM      3  C   LIG d   1      24.014   1.767  26.832  0.00  0.00     0.084 C 
BRANCH   3   4
ATOM      4  C   LIG d   1      23.684   2.308  25.455  0.00  0.00    -0.022 A 
ATOM      5  C   LIG d   1      22.755   3.507  25.376  0.00  0.00     0.011 A 
ATOM      6  C   LIG d   1      22.259   2.162  24.941  0.00  0.00     0.011 A 
BRANCH   4   7
ATOM      7  C   LIG d   1      24.825   2.263  24.440  0.00  0.00     0.123 C 
BRANCH   7   8
ATOM      8  C   LIG d   1      25.532   3.615  24.254  0.00  0.00     0.173 C 
ATOM      9  O   LIG d   1      26.245   3.994  25.229  0.00  0.00    -0.648 OA
ATOM     10  O   LIG d   1      25.322   4.186  23.147  0.00  0.00    -0.648 OA
ENDBRANCH   7   8
ENDBRANCH   4   7
ENDBRANCH   3   4
ENDBRANCH   2   3
ENDBRANCH   1   2
BRANCH   1  11
ATOM     11  C   LIG d   1      23.456  -1.197  25.823  0.00  0.00    -0.043 A 
ATOM     12  C   LIG d   1      23.858  -1.288  24.478  0.00  0.00     0.019 A 
ATOM     13  C   LIG d   1      22.927  -1.465  23.444  0.00  0.00    -0.036 A 
ATOM     14  C   LIG d   1      21.573  -1.582  23.768  0.00  0.00     0.011 A 
ATOM     15  C   LIG d   1      21.159  -1.520  25.100  0.00  0.00     0.001 A 
ATOM     16  C   LIG d   1      22.092  -1.322  26.119  0.00  0.00     0.008 A 
BRANCH  13  17
ATOM     17  C   LIG d   1      23.412  -1.400  22.058  0.00  0.00     0.014 C 
ATOM     18  C   LIG d   1      22.732  -1.826  20.980  0.00  0.00     0.032 C 
BRANCH  18  19
ATOM     19  C   LIG d   1      23.207  -1.713  19.595  0.00  0.00     0.057 A 
ATOM     20  N   LIG d   1      24.353  -2.389  19.340  0.00  0.00    -0.248 NA
ATOM     21  C   LIG d   1      24.857  -2.362  18.095  0.00  0.00     0.069 A 
ATOM     22  C   LIG d   1      24.248  -1.639  17.047  0.00  0.00    -0.007 A 
ATOM     23  C   LIG d   1      26.017  -3.070  17.818  0.00  0.00     0.056 A 
ATOM     24  C   LIG d   1      23.083  -0.924  17.339  0.00  0.00     0.016 A 
ATOM     25  C   LIG d   1      24.805  -1.645  15.758  0.00  0.00     0.015 A 
ATOM     26  C   LIG d   1      22.560  -0.956  18.627  0.00  0.00     0.032 A 
ATOM     27  C   LIG d   1      25.968  -2.366  15.503  0.00  0.00     0.025 A 
ATOM     28  C   LIG d   1      26.570  -3.076  16.538  0.00  0.00     0.036 A 
ATOM     29 CL   LIG d   1      28.010  -3.967  16.232  0.00  0.00    -0.084 Cl
ENDBRANCH  18  19
ENDBRANCH  13  17
ENDBRANCH   1  11
BRANCH   1  30
ATOM     30  C   LIG d   1      25.467  -2.142  27.061  0.00  0.00     0.025 C 
BRANCH  30  31
ATOM     31  C   LIG d   1      24.834  -3.382  27.719  0.00  0.00     0.040 C 
BRANCH  31  32
ATOM     32  C   LIG d   1      25.731  -4.605  27.659  0.00  0.00    -0.049 A 
ATOM     33  C   LIG d   1      25.595  -5.686  26.749  0.00  0.00    -0.019 A 
ATOM     34  C   LIG d   1      26.594  -6.692  26.793  0.00  0.00     0.011 A 
ATOM     35  C   LIG d   1      27.644  -6.674  27.715  0.00  0.00     0.001 A 
ATOM     36  C   LIG d   1      27.737  -5.638  28.628  0.00  0.00     0.001 A 
ATOM     37  C   LIG d   1      26.795  -4.617  28.596  0.00  0.00     0.007 A 
BRANCH  33  38
ATOM     38  C   LIG d   1      24.454  -5.841  25.726  0.00  0.00     0.078 C 
ATOM     39  C   LIG d   1      24.534  -4.825  24.574  0.00  0.00     0.051 C 
ATOM     40  C   LIG d   1      24.314  -7.277  25.215  0.00  0.00     0.051 C 
BRANCH  38  41
ATOM     41  O   LIG d   1      23.180  -5.564  26.356  0.00  0.00    -0.386 OA
ATOM     42  H   LIG d   1      23.157  -4.606  26.527  0.00  0.00     0.211 HD
ENDBRANCH  38  41
ENDBRANCH  33  38
ENDBRANCH  31  32
ENDBRANCH  30  31
ENDBRANCH   1  30
TORSDOF 13
ENDMDL
