MODEL 1
REMARK VINA RESULT:      -7.8      0.000      0.000
REMARK  13 active torsions:
REMARK  status: ('A' for Active; 'I' for Inactive)
REMARK    1  A    between atoms: S_2  and  C_10 
REMARK    2  A    between atoms: S_2  and  C_13 
REMARK    3  A    between atoms: O_5  and  C_23 
REMARK    4  A    between atoms: C_7  and  C_10 
REMARK    5  A    between atoms: C_7  and  C_11 
REMARK    6  A    between atoms: C_11  and  C_12 
REMARK    7  A    between atoms: C_13  and  C_15 
REMARK    8  A    between atoms: C_13  and  C_14 
REMARK    9  A    between atoms: C_14  and  C_16 
REMARK   10  A    between atoms: C_16  and  C_19 
REMARK   11  A    between atoms: C_20  and  C_23 
REMARK   12  A    between atoms: C_21  and  C_28 
REMARK   13  A    between atoms: C_32  and  C_33 
ROOT
ATOM      1  C   LIG d   1      21.828   5.499  -3.094  0.00  0.00     0.080 C 
ENDROOT
BRANCH   1   2
ATOM      2  S   LIG d   1      20.179   5.535  -3.910  0.00  0.00    -0.159 SA
BRANCH   2   3
ATOM      3  C   LIG d   1      20.727   5.668  -5.644  0.00  0.00     0.084 C 
BRANCH   3   4
ATOM      4  C   LIG d   1      19.961   4.683  -6.506  0.00  0.00    -0.022 A 
ATOM      5  C   LIG d   1      19.788   3.271  -5.974  0.00  0.00     0.011 A 
ATOM      6  C   LIG d   1      20.719   3.516  -7.121  0.00  0.00     0.011 A 
BRANCH   4   7
ATOM      7  C   LIG d   1      18.782   5.268  -7.282  0.00  0.00     0.123 C 
BRANCH   7   8
ATOM      8  C   LIG d   1      17.429   5.068  -6.581  0.00  0.00     0.173 C 
ATOM      9  O   LIG d   1      17.145   5.926  -5.694  0.00  0.00    -0.648 OA
ATOM     10  O   LIG d   1      16.757   4.075  -6.977  0.00  0.00    -0.648 OA
ENDBRANCH   7   8
ENDBRANCH   4   7
ENDBRANCH   3   4
ENDBRANCH   2   3
ENDBRANCH   1   2
BRANCH   1  11
ATOM     11  C   LIG d   1      22.549   4.178  -3.333  0.00  0.00    -0.043 A 
ATOM     12  C   LIG d   1      21.847   2.965  -3.452  0.00  0.00     0.019 A 
ATOM     13  C   LIG d   1      22.513   1.747  -3.645  0.00  0.00    -0.036 A 
ATOM     14  C   LIG d   1      23.907   1.749  -3.749  0.00  0.00     0.011 A 
ATOM     15  C   LIG d   1      24.618   2.948  -3.659  0.00  0.00     0.001 A 
ATOM     16  C   LIG d   1      23.945   4.152  -3.445  0.00  0.00     0.008 A 
BRANCH  13  17
ATOM     17  C   LIG d   1      21.719   0.510  -3.611  0.00  0.00     0.014 C 
ATOM     18  C   LIG d   1      21.104   0.016  -2.524  0.00  0.00     0.032 C 
BRANCH  18  19
ATOM     19  C   LIG d   1      20.274  -1.196  -2.513  0.00  0.00     0.057 A 
ATOM     20  N   LIG d   1      19.136  -1.100  -3.242  0.00  0.00    -0.248 NA
ATOM     21  C   LIG d   1      18.319  -2.165  -3.308  0.00  0.00     0.069 A 
ATOM     22  C   LIG d   1      18.592  -3.372  -2.632  0.00  0.00    -0.007 A 
ATOM     23  C   LIG d   1      17.164  -2.085  -4.071  0.00  0.00     0.056 A 
ATOM     24  C   LIG d   1      19.756  -3.439  -1.861  0.00  0.00     0.016 A 
ATOM     25  C   LIG d   1      17.714  -4.464  -2.736  0.00  0.00     0.015 A 
ATOM     26  C   LIG d   1      20.603  -2.338  -1.796  0.00  0.00     0.032 A 
ATOM     27  C   LIG d   1      16.562  -4.361  -3.511  0.00  0.00     0.025 A 
ATOM     28  C   LIG d   1      16.292  -3.169  -4.175  0.00  0.00     0.036 A 
ATOM     29 CL   LIG d   1      14.868  -3.032  -5.132  0.00  0.00    -0.084 Cl
ENDBRANCH  18  19
ENDBRANCH  13  17
ENDBRANCH   1  11
BRANCH   1  30
ATOM     30  C   LIG d   1      22.650   6.707  -3.590  0.00  0.00     0.025 C 
BRANCH  30  31
ATOM     31  C   LIG d   1      22.054   8.043  -3.111  0.00  0.00     0.040 C 
BRANCH  31  32
ATOM     32  C   LIG d   1      22.370   8.344  -1.657  0.00  0.00    -0.049 A 
ATOM     33  C   LIG d   1      21.547   9.085  -0.770  0.00  0.00    -0.019 A 
ATOM     34  C   LIG d   1      21.976   9.175   0.579  0.00  0.00     0.011 A 
ATOM     35  C   LIG d   1      23.175   8.617   1.029  0.00  0.00     0.001 A 
ATOM     36  C   LIG d   1      23.990   7.937   0.141  0.00  0.00     0.001 A 
ATOM     37  C   LIG d   1      23.589   7.800  -1.182  0.00  0.00     0.007 A 
BRANCH  33  38
ATOM     38  C   LIG d   1      20.234   9.790  -1.162  0.00  0.00     0.078 C 
ATOM     39  C   LIG d   1      19.376  10.185   0.051  0.00  0.00     0.051 C 
ATOM     40  C   LIG d   1      20.461  10.969  -2.112  0.00  0.00     0.051 C 
BRANCH  38  41
ATOM     41  O   LIG d   1      19.391   8.886  -1.916  0.00  0.00    -0.386 OA
ATOM     42  H   LIG d   1      19.452   9.161  -2.847  0.00  0.00     0.211 HD
ENDBRANCH  38  41
ENDBRANCH  33  38
ENDBRANCH  31  32
ENDBRANCH  30  31
ENDBRANCH   1  30
TORSDOF 13
ENDMDL
MODEL 2
REMARK VINA RESULT:      -7.8     17.647     19.765
REMARK  13 active torsions:
REMARK  status: ('A' for Active; 'I' for Inactive)
REMARK    1  A    between atoms: S_2  and  C_10 
REMARK    2  A    between atoms: S_2  and  C_13 
REMARK    3  A    between atoms: O_5  and  C_23 
REMARK    4  A    between atoms: C_7  and  C_10 
REMARK    5  A    between atoms: C_7  and  C_11 
REMARK    6  A    between atoms: C_11  and  C_12 
REMARK    7  A    between atoms: C_13  and  C_15 
REMARK    8  A    between atoms: C_13  and  C_14 
REMARK    9  A    between atoms: C_14  and  C_16 
REMARK   10  A    between atoms: C_16  and  C_19 
REMARK   11  A    between atoms: C_20  and  C_23 
REMARK   12  A    between atoms: C_21  and  C_28 
REMARK   13  A    between atoms: C_32  and  C_33 
ROOT
ATOM      1  C   LIG d   1       8.156  20.881   2.783  0.00  0.00     0.080 C 
ENDROOT
BRANCH   1   2
ATOM      2  S   LIG d   1       9.090  22.418   2.393  0.00  0.00    -0.159 SA
BRANCH   2   3
ATOM      3  C   LIG d   1       8.044  23.046   1.038  0.00  0.00     0.084 C 
BRANCH   3   4
ATOM      4  C   LIG d   1       8.879  23.245  -0.212  0.00  0.00    -0.022 A 
ATOM      5  C   LIG d   1      10.272  23.828  -0.040  0.00  0.00     0.011 A 
ATOM      6  C   LIG d   1       9.194  24.667  -0.655  0.00  0.00     0.011 A 
BRANCH   4   7
ATOM      7  C   LIG d   1       8.717  22.173  -1.288  0.00  0.00     0.123 C 
BRANCH   7   8
ATOM      8  C   LIG d   1       7.273  21.670  -1.439  0.00  0.00     0.173 C 
ATOM      9  O   LIG d   1       6.453  22.508  -1.917  0.00  0.00    -0.648 OA
ATOM     10  O   LIG d   1       7.075  20.478  -1.073  0.00  0.00    -0.648 OA
ENDBRANCH   7   8
ENDBRANCH   4   7
ENDBRANCH   3   4
ENDBRANCH   2   3
ENDBRANCH   1   2
BRANCH   1  11
ATOM     11  C   LIG d   1       8.631  19.702   1.943  0.00  0.00    -0.043 A 
ATOM     12  C   LIG d   1       7.973  18.459   1.978  0.00  0.00     0.019 A 
ATOM     13  C   LIG d   1       8.427  17.367   1.225  0.00  0.00    -0.036 A 
ATOM     14  C   LIG d   1       9.543  17.533   0.400  0.00  0.00     0.011 A 
ATOM     15  C   LIG d   1      10.192  18.767   0.333  0.00  0.00     0.001 A 
ATOM     16  C   LIG d   1       9.744  19.842   1.104  0.00  0.00     0.008 A 
BRANCH  13  17
ATOM     17  C   LIG d   1       7.776  16.065   1.431  0.00  0.00     0.014 C 
ATOM     18  C   LIG d   1       8.296  15.041   2.128  0.00  0.00     0.032 C 
BRANCH  18  19
ATOM     19  C   LIG d   1       7.615  13.762   2.367  0.00  0.00     0.057 A 
ATOM     20  N   LIG d   1       7.327  13.517   3.669  0.00  0.00    -0.248 NA
ATOM     21  C   LIG d   1       6.688  12.379   3.986  0.00  0.00     0.069 A 
ATOM     22  C   LIG d   1       6.321  11.421   3.017  0.00  0.00    -0.007 A 
ATOM     23  C   LIG d   1       6.368  12.129   5.312  0.00  0.00     0.056 A 
ATOM     24  C   LIG d   1       6.654  11.680   1.685  0.00  0.00     0.016 A 
ATOM     25  C   LIG d   1       5.645  10.248   3.393  0.00  0.00     0.015 A 
ATOM     26  C   LIG d   1       7.312  12.860   1.356  0.00  0.00     0.032 A 
ATOM     27  C   LIG d   1       5.331  10.021   4.731  0.00  0.00     0.025 A 
ATOM     28  C   LIG d   1       5.696  10.965   5.685  0.00  0.00     0.036 A 
ATOM     29 CL   LIG d   1       5.316  10.690   7.341  0.00  0.00    -0.084 Cl
ENDBRANCH  18  19
ENDBRANCH  13  17
ENDBRANCH   1  11
BRANCH   1  30
ATOM     30  C   LIG d   1       8.274  20.603   4.295  0.00  0.00     0.025 C 
BRANCH  30  31
ATOM     31  C   LIG d   1       9.731  20.340   4.719  0.00  0.00     0.040 C 
BRANCH  31  32
ATOM     32  C   LIG d   1      10.061  18.862   4.814  0.00  0.00    -0.049 A 
ATOM     33  C   LIG d   1      11.354  18.294   4.674  0.00  0.00    -0.019 A 
ATOM     34  C   LIG d   1      11.468  16.896   4.892  0.00  0.00     0.011 A 
ATOM     35  C   LIG d   1      10.368  16.085   5.179  0.00  0.00     0.001 A 
ATOM     36  C   LIG d   1       9.106  16.645   5.266  0.00  0.00     0.001 A 
ATOM     37  C   LIG d   1       8.958  18.016   5.089  0.00  0.00     0.007 A 
BRANCH  33  38
ATOM     38  C   LIG d   1      12.629  19.078   4.308  0.00  0.00     0.078 C 
ATOM     39  C   LIG d   1      12.429  20.033   3.120  0.00  0.00     0.051 C 
ATOM     40  C   LIG d   1      13.248  19.788   5.516  0.00  0.00     0.051 C 
BRANCH  38  41
ATOM     41  O   LIG d   1      13.663  18.167   3.864  0.00  0.00    -0.386 OA
ATOM     42  H   LIG d   1      13.269  17.277   3.867  0.00  0.00     0.211 HD
ENDBRANCH  38  41
ENDBRANCH  33  38
ENDBRANCH  31  32
ENDBRANCH  30  31
ENDBRANCH   1  30
TORSDOF 13
ENDMDL
MODEL 3
REMARK VINA RESULT:      -7.6      5.344      8.024
REMARK  13 active torsions:
REMARK  status: ('A' for Active; 'I' for Inactive)
REMARK    1  A    between atoms: S_2  and  C_10 
REMARK    2  A    between atoms: S_2  and  C_13 
REMARK    3  A    between atoms: O_5  and  C_23 
REMARK    4  A    between atoms: C_7  and  C_10 
REMARK    5  A    between atoms: C_7  and  C_11 
REMARK    6  A    between atoms: C_11  and  C_12 
REMARK    7  A    between atoms: C_13  and  C_15 
REMARK    8  A    between atoms: C_13  and  C_14 
REMARK    9  A    between atoms: C_14  and  C_16 
REMARK   10  A    between atoms: C_16  and  C_19 
REMARK   11  A    between atoms: C_20  and  C_23 
REMARK   12  A    between atoms: C_21  and  C_28 
REMARK   13  A    between atoms: C_32  and  C_33 
ROOT
ATOM      1  C   LIG d   1      20.516   0.236  -6.501  0.00  0.00     0.080 C 
ENDROOT
BRANCH   1   2
ATOM      2  S   LIG d   1      19.074  -0.262  -5.473  0.00  0.00    -0.159 SA
BRANCH   2   3
ATOM      3  C   LIG d   1      19.861  -1.600  -4.515  0.00  0.00     0.084 C 
BRANCH   3   4
ATOM      4  C   LIG d   1      19.370  -1.568  -3.081  0.00  0.00    -0.022 A 
ATOM      5  C   LIG d   1      19.530  -2.833  -2.256  0.00  0.00     0.011 A 
ATOM      6  C   LIG d   1      18.164  -2.417  -2.708  0.00  0.00     0.011 A 
BRANCH   4   7
ATOM      7  C   LIG d   1      19.576  -0.245  -2.345  0.00  0.00     0.123 C 
BRANCH   7   8
ATOM      8  C   LIG d   1      21.055   0.141  -2.183  0.00  0.00     0.173 C 
ATOM      9  O   LIG d   1      21.657  -0.410  -1.215  0.00  0.00    -0.648 OA
ATOM     10  O   LIG d   1      21.497   0.959  -3.038  0.00  0.00    -0.648 OA
ENDBRANCH   7   8
ENDBRANCH   4   7
ENDBRANCH   3   4
ENDBRANCH   2   3
ENDBRANCH   1   2
BRANCH   1  11
ATOM     11  C   LIG d   1      20.462  -0.384  -7.891  0.00  0.00    -0.043 A 
ATOM     12  C   LIG d   1      19.273  -0.928  -8.411  0.00  0.00     0.019 A 
ATOM     13  C   LIG d   1      19.232  -1.522  -9.680  0.00  0.00    -0.036 A 
ATOM     14  C   LIG d   1      20.396  -1.545 -10.453  0.00  0.00     0.011 A 
ATOM     15  C   LIG d   1      21.578  -0.986  -9.963  0.00  0.00     0.001 A 
ATOM     16  C   LIG d   1      21.613  -0.417  -8.689  0.00  0.00     0.008 A 
BRANCH  13  17
ATOM     17  C   LIG d   1      17.992  -2.198 -10.088  0.00  0.00     0.014 C 
ATOM     18  C   LIG d   1      16.809  -2.088  -9.462  0.00  0.00     0.032 C 
BRANCH  18  19
ATOM     19  C   LIG d   1      15.565  -2.730  -9.907  0.00  0.00     0.057 A 
ATOM     20  N   LIG d   1      14.931  -2.083 -10.915  0.00  0.00    -0.248 NA
ATOM     21  C   LIG d   1      13.793  -2.603 -11.403  0.00  0.00     0.069 A 
ATOM     22  C   LIG d   1      13.223  -3.789 -10.893  0.00  0.00    -0.007 A 
ATOM     23  C   LIG d   1      13.150  -1.962 -12.450  0.00  0.00     0.056 A 
ATOM     24  C   LIG d   1      13.876  -4.424  -9.834  0.00  0.00     0.016 A 
ATOM     25  C   LIG d   1      12.036  -4.303 -11.440  0.00  0.00     0.015 A 
ATOM     26  C   LIG d   1      15.057  -3.887  -9.331  0.00  0.00     0.032 A 
ATOM     27  C   LIG d   1      11.409  -3.643 -12.493  0.00  0.00     0.025 A 
ATOM     28  C   LIG d   1      11.971  -2.472 -12.993  0.00  0.00     0.036 A 
ATOM     29 CL   LIG d   1      11.201  -1.648 -14.293  0.00  0.00    -0.084 Cl
ENDBRANCH  18  19
ENDBRANCH  13  17
ENDBRANCH   1  11
BRANCH   1  30
ATOM     30  C   LIG d   1      20.574   1.777  -6.554  0.00  0.00     0.025 C 
BRANCH  30  31
ATOM     31  C   LIG d   1      19.595   2.424  -5.557  0.00  0.00     0.040 C 
BRANCH  31  32
ATOM     32  C   LIG d   1      19.333   3.890  -5.853  0.00  0.00    -0.049 A 
ATOM     33  C   LIG d   1      19.712   4.979  -5.026  0.00  0.00    -0.019 A 
ATOM     34  C   LIG d   1      19.459   6.283  -5.526  0.00  0.00     0.011 A 
ATOM     35  C   LIG d   1      18.819   6.512  -6.746  0.00  0.00     0.001 A 
ATOM     36  C   LIG d   1      18.412   5.439  -7.520  0.00  0.00     0.001 A 
ATOM     37  C   LIG d   1      18.670   4.147  -7.079  0.00  0.00     0.007 A 
BRANCH  33  38
ATOM     38  C   LIG d   1      20.374   4.849  -3.641  0.00  0.00     0.078 C 
ATOM     39  C   LIG d   1      19.570   3.968  -2.670  0.00  0.00     0.051 C 
ATOM     40  C   LIG d   1      21.840   4.415  -3.729  0.00  0.00     0.051 C 
BRANCH  38  41
ATOM     41  O   LIG d   1      20.425   6.141  -2.991  0.00  0.00    -0.386 OA
ATOM     42  H   LIG d   1      19.862   6.077  -2.200  0.00  0.00     0.211 HD
ENDBRANCH  38  41
ENDBRANCH  33  38
ENDBRANCH  31  32
ENDBRANCH  30  31
ENDBRANCH   1  30
TORSDOF 13
ENDMDL
MODEL 4
REMARK VINA RESULT:      -7.6      5.113     11.057
REMARK  13 active torsions:
REMARK  status: ('A' for Active; 'I' for Inactive)
REMARK    1  A    between atoms: S_2  and  C_10 
REMARK    2  A    between atoms: S_2  and  C_13 
REMARK    3  A    between atoms: O_5  and  C_23 
REMARK    4  A    between atoms: C_7  and  C_10 
REMARK    5  A    between atoms: C_7  and  C_11 
REMARK    6  A    between atoms: C_11  and  C_12 
REMARK    7  A    between atoms: C_13  and  C_15 
REMARK    8  A    between atoms: C_13  and  C_14 
REMARK    9  A    between atoms: C_14  and  C_16 
REMARK   10  A    between atoms: C_16  and  C_19 
REMARK   11  A    between atoms: C_20  and  C_23 
REMARK   12  A    between atoms: C_21  and  C_28 
REMARK   13  A    between atoms: C_32  and  C_33 
ROOT
ATOM      1  C   LIG d   1      18.642  -2.876  -4.883  0.00  0.00     0.080 C 
ENDROOT
BRANCH   1   2
ATOM      2  S   LIG d   1      18.505  -4.666  -4.484  0.00  0.00    -0.159 SA
BRANCH   2   3
ATOM      3  C   LIG d   1      18.690  -5.344  -6.166  0.00  0.00     0.084 C 
BRANCH   3   4
ATOM      4  C   LIG d   1      17.405  -6.024  -6.596  0.00  0.00    -0.022 A 
ATOM      5  C   LIG d   1      17.025  -5.945  -8.065  0.00  0.00     0.011 A 
ATOM      6  C   LIG d   1      16.245  -5.155  -7.060  0.00  0.00     0.011 A 
BRANCH   4   7
ATOM      7  C   LIG d   1      17.083  -7.334  -5.879  0.00  0.00     0.123 C 
BRANCH   7   8
ATOM      8  C   LIG d   1      18.309  -8.240  -5.681  0.00  0.00     0.173 C 
ATOM      9  O   LIG d   1      18.752  -8.791  -6.731  0.00  0.00    -0.648 OA
ATOM     10  O   LIG d   1      18.732  -8.324  -4.494  0.00  0.00    -0.648 OA
ENDBRANCH   7   8
ENDBRANCH   4   7
ENDBRANCH   3   4
ENDBRANCH   2   3
ENDBRANCH   1   2
BRANCH   1  11
ATOM     11  C   LIG d   1      19.446  -2.121  -3.831  0.00  0.00    -0.043 A 
ATOM     12  C   LIG d   1      19.286  -0.738  -3.632  0.00  0.00     0.019 A 
ATOM     13  C   LIG d   1      20.045  -0.040  -2.683  0.00  0.00    -0.036 A 
ATOM     14  C   LIG d   1      20.960  -0.748  -1.898  0.00  0.00     0.011 A 
ATOM     15  C   LIG d   1      21.112  -2.126  -2.064  0.00  0.00     0.001 A 
ATOM     16  C   LIG d   1      20.367  -2.806  -3.028  0.00  0.00     0.008 A 
BRANCH  13  17
ATOM     17  C   LIG d   1      19.925   1.424  -2.640  0.00  0.00     0.014 C 
ATOM     18  C   LIG d   1      19.795   2.221  -3.714  0.00  0.00     0.032 C 
BRANCH  18  19
ATOM     19  C   LIG d   1      19.628   3.680  -3.656  0.00  0.00     0.057 A 
ATOM     20  N   LIG d   1      20.732   4.353  -3.250  0.00  0.00    -0.248 NA
ATOM     21  C   LIG d   1      20.683   5.694  -3.183  0.00  0.00     0.069 A 
ATOM     22  C   LIG d   1      19.519   6.426  -3.501  0.00  0.00    -0.007 A 
ATOM     23  C   LIG d   1      21.814   6.393  -2.791  0.00  0.00     0.056 A 
ATOM     24  C   LIG d   1      18.383   5.710  -3.888  0.00  0.00     0.016 A 
ATOM     25  C   LIG d   1      19.515   7.828  -3.425  0.00  0.00     0.015 A 
ATOM     26  C   LIG d   1      18.436   4.322  -3.961  0.00  0.00     0.032 A 
ATOM     27  C   LIG d   1      20.665   8.510  -3.033  0.00  0.00     0.025 A 
ATOM     28  C   LIG d   1      21.810   7.786  -2.716  0.00  0.00     0.036 A 
ATOM     29 CL   LIG d   1      23.234   8.620  -2.227  0.00  0.00    -0.084 Cl
ENDBRANCH  18  19
ENDBRANCH  13  17
ENDBRANCH   1  11
BRANCH   1  30
ATOM     30  C   LIG d   1      19.250  -2.730  -6.293  0.00  0.00     0.025 C 
BRANCH  30  31
ATOM     31  C   LIG d   1      18.690  -1.503  -7.036  0.00  0.00     0.040 C 
BRANCH  31  32
ATOM     32  C   LIG d   1      17.579  -1.857  -8.008  0.00  0.00    -0.049 A 
ATOM     33  C   LIG d   1      16.195  -1.621  -7.802  0.00  0.00    -0.019 A 
ATOM     34  C   LIG d   1      15.322  -1.940  -8.874  0.00  0.00     0.011 A 
ATOM     35  C   LIG d   1      15.771  -2.511 -10.067  0.00  0.00     0.001 A 
ATOM     36  C   LIG d   1      17.117  -2.780 -10.236  0.00  0.00     0.001 A 
ATOM     37  C   LIG d   1      18.008  -2.452  -9.220  0.00  0.00     0.007 A 
BRANCH  33  38
ATOM     38  C   LIG d   1      15.579  -1.047  -6.512  0.00  0.00     0.078 C 
ATOM     39  C   LIG d   1      14.315  -0.209  -6.768  0.00  0.00     0.051 C 
ATOM     40  C   LIG d   1      15.349  -2.119  -5.443  0.00  0.00     0.051 C 
BRANCH  38  41
ATOM     41  O   LIG d   1      16.501  -0.120  -5.890  0.00  0.00    -0.386 OA
ATOM     42  H   LIG d   1      16.191   0.774  -6.117  0.00  0.00     0.211 HD
ENDBRANCH  38  41
ENDBRANCH  33  38
ENDBRANCH  31  32
ENDBRANCH  30  31
ENDBRANCH   1  30
TORSDOF 13
ENDMDL
MODEL 5
REMARK VINA RESULT:      -7.5     16.981     19.765
REMARK  13 active torsions:
REMARK  status: ('A' for Active; 'I' for Inactive)
REMARK    1  A    between atoms: S_2  and  C_10 
REMARK    2  A    between atoms: S_2  and  C_13 
REMARK    3  A    between atoms: O_5  and  C_23 
REMARK    4  A    between atoms: C_7  and  C_10 
REMARK    5  A    between atoms: C_7  and  C_11 
REMARK    6  A    between atoms: C_11  and  C_12 
REMARK    7  A    between atoms: C_13  and  C_15 
REMARK    8  A    between atoms: C_13  and  C_14 
REMARK    9  A    between atoms: C_14  and  C_16 
REMARK   10  A    between atoms: C_16  and  C_19 
REMARK   11  A    between atoms: C_20  and  C_23 
REMARK   12  A    between atoms: C_21  and  C_28 
REMARK   13  A    between atoms: C_32  and  C_33 
ROOT
ATOM      1  C   LIG d   1       8.407  17.214   1.940  0.00  0.00     0.080 C 
ENDROOT
BRANCH   1   2
ATOM      2  S   LIG d   1       8.122  18.511   0.668  0.00  0.00    -0.159 SA
BRANCH   2   3
ATOM      3  C   LIG d   1       9.852  19.014   0.387  0.00  0.00     0.084 C 
BRANCH   3   4
ATOM      4  C   LIG d   1       9.957  20.526   0.371  0.00  0.00    -0.022 A 
ATOM      5  C   LIG d   1       8.663  21.320   0.424  0.00  0.00     0.011 A 
ATOM      6  C   LIG d   1       9.447  21.276  -0.851  0.00  0.00     0.011 A 
BRANCH   4   7
ATOM      7  C   LIG d   1      11.146  21.111   1.132  0.00  0.00     0.123 C 
BRANCH   7   8
ATOM      8  C   LIG d   1      11.415  20.414   2.476  0.00  0.00     0.173 C 
ATOM      9  O   LIG d   1      10.532  20.592   3.365  0.00  0.00    -0.648 OA
ATOM     10  O   LIG d   1      12.482  19.742   2.532  0.00  0.00    -0.648 OA
ENDBRANCH   7   8
ENDBRANCH   4   7
ENDBRANCH   3   4
ENDBRANCH   2   3
ENDBRANCH   1   2
BRANCH   1  11
ATOM     11  C   LIG d   1       7.701  17.541   3.250  0.00  0.00    -0.043 A 
ATOM     12  C   LIG d   1       7.279  16.530   4.133  0.00  0.00     0.019 A 
ATOM     13  C   LIG d   1       6.606  16.831   5.326  0.00  0.00    -0.036 A 
ATOM     14  C   LIG d   1       6.379  18.171   5.653  0.00  0.00     0.011 A 
ATOM     15  C   LIG d   1       6.815  19.188   4.800  0.00  0.00     0.001 A 
ATOM     16  C   LIG d   1       7.464  18.875   3.605  0.00  0.00     0.008 A 
BRANCH  13  17
ATOM     17  C   LIG d   1       6.067  15.716   6.118  0.00  0.00     0.014 C 
ATOM     18  C   LIG d   1       6.461  14.436   6.018  0.00  0.00     0.032 C 
BRANCH  18  19
ATOM     19  C   LIG d   1       5.950  13.338   6.849  0.00  0.00     0.057 A 
ATOM     20  N   LIG d   1       5.698  12.193   6.169  0.00  0.00    -0.248 NA
ATOM     21  C   LIG d   1       5.244  11.125   6.845  0.00  0.00     0.069 A 
ATOM     22  C   LIG d   1       5.002  11.157   8.235  0.00  0.00    -0.007 A 
ATOM     23  C   LIG d   1       5.006   9.942   6.163  0.00  0.00     0.056 A 
ATOM     24  C   LIG d   1       5.239  12.356   8.912  0.00  0.00     0.016 A 
ATOM     25  C   LIG d   1       4.535  10.013   8.905  0.00  0.00     0.015 A 
ATOM     26  C   LIG d   1       5.712  13.460   8.211  0.00  0.00     0.032 A 
ATOM     27  C   LIG d   1       4.306   8.835   8.198  0.00  0.00     0.025 A 
ATOM     28  C   LIG d   1       4.543   8.807   6.828  0.00  0.00     0.036 A 
ATOM     29 CL   LIG d   1       4.260   7.355   5.946  0.00  0.00    -0.084 Cl
ENDBRANCH  18  19
ENDBRANCH  13  17
ENDBRANCH   1  11
BRANCH   1  30
ATOM     30  C   LIG d   1       7.963  15.853   1.365  0.00  0.00     0.025 C 
BRANCH  30  31
ATOM     31  C   LIG d   1       9.103  14.818   1.395  0.00  0.00     0.040 C 
BRANCH  31  32
ATOM     32  C   LIG d   1       9.078  13.948   2.638  0.00  0.00    -0.049 A 
ATOM     33  C   LIG d   1       8.260  12.804   2.830  0.00  0.00    -0.019 A 
ATOM     34  C   LIG d   1       8.454  12.069   4.028  0.00  0.00     0.011 A 
ATOM     35  C   LIG d   1       9.361  12.462   5.015  0.00  0.00     0.001 A 
ATOM     36  C   LIG d   1      10.118  13.606   4.836  0.00  0.00     0.001 A 
ATOM     37  C   LIG d   1       9.979  14.335   3.661  0.00  0.00     0.007 A 
BRANCH  33  38
ATOM     38  C   LIG d   1       7.191  12.306   1.838  0.00  0.00     0.078 C 
ATOM     39  C   LIG d   1       6.760  10.853   2.096  0.00  0.00     0.051 C 
ATOM     40  C   LIG d   1       5.990  13.252   1.746  0.00  0.00     0.051 C 
BRANCH  38  41
ATOM     41  O   LIG d   1       7.729  12.285   0.495  0.00  0.00    -0.386 OA
ATOM     42  H   LIG d   1       8.429  12.960   0.465  0.00  0.00     0.211 HD
ENDBRANCH  38  41
ENDBRANCH  33  38
ENDBRANCH  31  32
ENDBRANCH  30  31
ENDBRANCH   1  30
TORSDOF 13
ENDMDL
MODEL 6
REMARK VINA RESULT:      -7.4      4.303      8.506
REMARK  13 active torsions:
REMARK  status: ('A' for Active; 'I' for Inactive)
REMARK    1  A    between atoms: S_2  and  C_10 
REMARK    2  A    between atoms: S_2  and  C_13 
REMARK    3  A    between atoms: O_5  and  C_23 
REMARK    4  A    between atoms: C_7  and  C_10 
REMARK    5  A    between atoms: C_7  and  C_11 
REMARK    6  A    between atoms: C_11  and  C_12 
REMARK    7  A    between atoms: C_13  and  C_15 
REMARK    8  A    between atoms: C_13  and  C_14 
REMARK    9  A    between atoms: C_14  and  C_16 
REMARK   10  A    between atoms: C_16  and  C_19 
REMARK   11  A    between atoms: C_20  and  C_23 
REMARK   12  A    between atoms: C_21  and  C_28 
REMARK   13  A    between atoms: C_32  and  C_33 
ROOT
ATOM      1  C   LIG d   1      20.157   0.541  -5.981  0.00  0.00     0.080 C 
ENDROOT
BRANCH   1   2
ATOM      2  S   LIG d   1      20.487   2.292  -6.437  0.00  0.00    -0.159 SA
BRANCH   2   3
ATOM      3  C   LIG d   1      18.783   2.934  -6.338  0.00  0.00     0.084 C 
BRANCH   3   4
ATOM      4  C   LIG d   1      18.806   4.441  -6.180  0.00  0.00    -0.022 A 
ATOM      5  C   LIG d   1      17.490   5.184  -6.341  0.00  0.00     0.011 A 
ATOM      6  C   LIG d   1      18.538   5.303  -7.405  0.00  0.00     0.011 A 
BRANCH   4   7
ATOM      7  C   LIG d   1      19.763   4.976  -5.116  0.00  0.00     0.123 C 
BRANCH   7   8
ATOM      8  C   LIG d   1      19.068   5.341  -3.795  0.00  0.00     0.173 C 
ATOM      9  O   LIG d   1      18.722   4.360  -3.074  0.00  0.00    -0.648 OA
ATOM     10  O   LIG d   1      18.928   6.578  -3.582  0.00  0.00    -0.648 OA
ENDBRANCH   7   8
ENDBRANCH   4   7
ENDBRANCH   3   4
ENDBRANCH   2   3
ENDBRANCH   1   2
BRANCH   1  11
ATOM     11  C   LIG d   1      20.472   0.268  -4.515  0.00  0.00    -0.043 A 
ATOM     12  C   LIG d   1      21.238  -0.843  -4.119  0.00  0.00     0.019 A 
ATOM     13  C   LIG d   1      21.504  -1.107  -2.768  0.00  0.00    -0.036 A 
ATOM     14  C   LIG d   1      21.019  -0.224  -1.800  0.00  0.00     0.011 A 
ATOM     15  C   LIG d   1      20.280   0.899  -2.177  0.00  0.00     0.001 A 
ATOM     16  C   LIG d   1      20.002   1.139  -3.524  0.00  0.00     0.008 A 
BRANCH  13  17
ATOM     17  C   LIG d   1      22.183  -2.366  -2.429  0.00  0.00     0.014 C 
ATOM     18  C   LIG d   1      21.629  -3.588  -2.502  0.00  0.00     0.032 C 
BRANCH  18  19
ATOM     19  C   LIG d   1      22.332  -4.843  -2.206  0.00  0.00     0.057 A 
ATOM     20  N   LIG d   1      22.895  -4.891  -0.974  0.00  0.00    -0.248 NA
ATOM     21  C   LIG d   1      23.546  -6.007  -0.604  0.00  0.00     0.069 A 
ATOM     22  C   LIG d   1      23.680  -7.123  -1.457  0.00  0.00    -0.007 A 
ATOM     23  C   LIG d   1      24.105  -6.075   0.663  0.00  0.00     0.056 A 
ATOM     24  C   LIG d   1      23.118  -7.041  -2.733  0.00  0.00     0.016 A 
ATOM     25  C   LIG d   1      24.361  -8.273  -1.025  0.00  0.00     0.015 A 
ATOM     26  C   LIG d   1      22.441  -5.887  -3.114  0.00  0.00     0.032 A 
ATOM     27  C   LIG d   1      24.913  -8.319   0.253  0.00  0.00     0.025 A 
ATOM     28  C   LIG d   1      24.782  -7.217   1.091  0.00  0.00     0.036 A 
ATOM     29 CL   LIG d   1      25.463  -7.265   2.671  0.00  0.00    -0.084 Cl
ENDBRANCH  18  19
ENDBRANCH  13  17
ENDBRANCH   1  11
BRANCH   1  30
ATOM     30  C   LIG d   1      18.692   0.207  -6.332  0.00  0.00     0.025 C 
BRANCH  30  31
ATOM     31  C   LIG d   1      18.464  -1.310  -6.465  0.00  0.00     0.040 C 
BRANCH  31  32
ATOM     32  C   LIG d   1      17.607  -1.878  -5.348  0.00  0.00    -0.049 A 
ATOM     33  C   LIG d   1      16.201  -2.064  -5.400  0.00  0.00    -0.019 A 
ATOM     34  C   LIG d   1      15.596  -2.699  -4.285  0.00  0.00     0.011 A 
ATOM     35  C   LIG d   1      16.318  -3.084  -3.153  0.00  0.00     0.001 A 
ATOM     36  C   LIG d   1      17.681  -2.854  -3.097  0.00  0.00     0.001 A 
ATOM     37  C   LIG d   1      18.315  -2.263  -4.183  0.00  0.00     0.007 A 
BRANCH  33  38
ATOM     38  C   LIG d   1      15.295  -1.632  -6.569  0.00  0.00     0.078 C 
ATOM     39  C   LIG d   1      15.072  -0.111  -6.629  0.00  0.00     0.051 C 
ATOM     40  C   LIG d   1      15.762  -2.196  -7.913  0.00  0.00     0.051 C 
BRANCH  38  41
ATOM     41  O   LIG d   1      13.966  -2.180  -6.397  0.00  0.00    -0.386 OA
ATOM     42  H   LIG d   1      13.678  -2.488  -7.273  0.00  0.00     0.211 HD
ENDBRANCH  38  41
ENDBRANCH  33  38
ENDBRANCH  31  32
ENDBRANCH  30  31
ENDBRANCH   1  30
TORSDOF 13
ENDMDL
MODEL 7
REMARK VINA RESULT:      -7.4     21.141     24.963
REMARK  13 active torsions:
REMARK  status: ('A' for Active; 'I' for Inactive)
REMARK    1  A    between atoms: S_2  and  C_10 
REMARK    2  A    between atoms: S_2  and  C_13 
REMARK    3  A    between atoms: O_5  and  C_23 
REMARK    4  A    between atoms: C_7  and  C_10 
REMARK    5  A    between atoms: C_7  and  C_11 
REMARK    6  A    between atoms: C_11  and  C_12 
REMARK    7  A    between atoms: C_13  and  C_15 
REMARK    8  A    between atoms: C_13  and  C_14 
REMARK    9  A    between atoms: C_14  and  C_16 
REMARK   10  A    between atoms: C_16  and  C_19 
REMARK   11  A    between atoms: C_20  and  C_23 
REMARK   12  A    between atoms: C_21  and  C_28 
REMARK   13  A    between atoms: C_32  and  C_33 
ROOT
ATOM      1  C   LIG d   1      26.950  -0.399  19.664  0.00  0.00     0.080 C 
ENDROOT
BRANCH   1   2
ATOM      2  S   LIG d   1      26.720  -1.141  17.996  0.00  0.00    -0.159 SA
BRANCH   2   3
ATOM      3  C   LIG d   1      25.055  -0.495  17.629  0.00  0.00     0.084 C 
BRANCH   3   4
ATOM      4  C   LIG d   1      25.092   0.349  16.370  0.00  0.00    -0.022 A 
ATOM      5  C   LIG d   1      26.367   1.124  16.082  0.00  0.00     0.011 A 
ATOM      6  C   LIG d   1      25.137   1.863  16.513  0.00  0.00     0.011 A 
BRANCH   4   7
ATOM      7  C   LIG d   1      24.366  -0.241  15.162  0.00  0.00     0.123 C 
BRANCH   7   8
ATOM      8  C   LIG d   1      24.924  -1.602  14.717  0.00  0.00     0.173 C 
ATOM      9  O   LIG d   1      26.013  -1.558  14.073  0.00  0.00    -0.648 OA
ATOM     10  O   LIG d   1      24.232  -2.605  15.052  0.00  0.00    -0.648 OA
ENDBRANCH   7   8
ENDBRANCH   4   7
ENDBRANCH   3   4
ENDBRANCH   2   3
ENDBRANCH   1   2
BRANCH   1  11
ATOM     11  C   LIG d   1      27.509   1.016  19.582  0.00  0.00    -0.043 A 
ATOM     12  C   LIG d   1      26.679   2.145  19.699  0.00  0.00     0.019 A 
ATOM     13  C   LIG d   1      27.191   3.447  19.597  0.00  0.00    -0.036 A 
ATOM     14  C   LIG d   1      28.565   3.618  19.403  0.00  0.00     0.011 A 
ATOM     15  C   LIG d   1      29.407   2.508  19.311  0.00  0.00     0.001 A 
ATOM     16  C   LIG d   1      28.883   1.217  19.392  0.00  0.00     0.008 A 
BRANCH  13  17
ATOM     17  C   LIG d   1      26.239   4.566  19.582  0.00  0.00     0.014 C 
ATOM     18  C   LIG d   1      25.162   4.676  20.377  0.00  0.00     0.032 C 
BRANCH  18  19
ATOM     19  C   LIG d   1      24.244   5.823  20.385  0.00  0.00     0.057 A 
ATOM     20  N   LIG d   1      24.414   6.683  19.352  0.00  0.00    -0.248 NA
ATOM     21  C   LIG d   1      23.608   7.754  19.263  0.00  0.00     0.069 A 
ATOM     22  C   LIG d   1      22.604   8.028  20.216  0.00  0.00    -0.007 A 
ATOM     23  C   LIG d   1      23.759   8.627  18.197  0.00  0.00     0.056 A 
ATOM     24  C   LIG d   1      22.466   7.145  21.290  0.00  0.00     0.016 A 
ATOM     25  C   LIG d   1      21.778   9.155  20.079  0.00  0.00     0.015 A 
ATOM     26  C   LIG d   1      23.297   6.033  21.379  0.00  0.00     0.032 A 
ATOM     27  C   LIG d   1      21.946  10.017  18.997  0.00  0.00     0.025 A 
ATOM     28  C   LIG d   1      22.938   9.747  18.060  0.00  0.00     0.036 A 
ATOM     29 CL   LIG d   1      23.154  10.808  16.722  0.00  0.00    -0.084 Cl
ENDBRANCH  18  19
ENDBRANCH  13  17
ENDBRANCH   1  11
BRANCH   1  30
ATOM     30  C   LIG d   1      25.604  -0.449  20.416  0.00  0.00     0.025 C 
BRANCH  30  31
ATOM     31  C   LIG d   1      25.801  -0.557  21.940  0.00  0.00     0.040 C 
BRANCH  31  32
ATOM     32  C   LIG d   1      24.899   0.382  22.719  0.00  0.00    -0.049 A 
ATOM     33  C   LIG d   1      23.685   0.019  23.359  0.00  0.00    -0.019 A 
ATOM     34  C   LIG d   1      23.034   1.024  24.119  0.00  0.00     0.011 A 
ATOM     35  C   LIG d   1      23.514   2.333  24.206  0.00  0.00     0.001 A 
ATOM     36  C   LIG d   1      24.673   2.686  23.538  0.00  0.00     0.001 A 
ATOM     37  C   LIG d   1      25.356   1.720  22.808  0.00  0.00     0.007 A 
BRANCH  33  38
ATOM     38  C   LIG d   1      23.033  -1.375  23.291  0.00  0.00     0.078 C 
ATOM     39  C   LIG d   1      23.975  -2.504  23.742  0.00  0.00     0.051 C 
ATOM     40  C   LIG d   1      21.685  -1.429  24.015  0.00  0.00     0.051 C 
BRANCH  38  41
ATOM     41  O   LIG d   1      22.712  -1.707  21.919  0.00  0.00    -0.386 OA
ATOM     42  H   LIG d   1      22.372  -0.893  21.508  0.00  0.00     0.211 HD
ENDBRANCH  38  41
ENDBRANCH  33  38
ENDBRANCH  31  32
ENDBRANCH  30  31
ENDBRANCH   1  30
TORSDOF 13
ENDMDL
MODEL 8
REMARK VINA RESULT:      -7.3     24.350     27.472
REMARK  13 active torsions:
REMARK  status: ('A' for Active; 'I' for Inactive)
REMARK    1  A    between atoms: S_2  and  C_10 
REMARK    2  A    between atoms: S_2  and  C_13 
REMARK    3  A    between atoms: O_5  and  C_23 
REMARK    4  A    between atoms: C_7  and  C_10 
REMARK    5  A    between atoms: C_7  and  C_11 
REMARK    6  A    between atoms: C_11  and  C_12 
REMARK    7  A    between atoms: C_13  and  C_15 
REMARK    8  A    between atoms: C_13  and  C_14 
REMARK    9  A    between atoms: C_14  and  C_16 
REMARK   10  A    between atoms: C_16  and  C_19 
REMARK   11  A    between atoms: C_20  and  C_23 
REMARK   12  A    between atoms: C_21  and  C_28 
REMARK   13  A    between atoms: C_32  and  C_33 
ROOT
ATOM      1  C   LIG d   1      25.674  -0.909  25.607  0.00  0.00     0.080 C 
ENDROOT
BRANCH   1   2
ATOM      2  S   LIG d   1      25.832   0.786  26.305  0.00  0.00    -0.159 SA
BRANCH   2   3
ATOM      3  C   LIG d   1      26.421   1.650  24.811  0.00  0.00     0.084 C 
BRANCH   3   4
ATOM      4  C   LIG d   1      25.431   2.727  24.411  0.00  0.00    -0.022 A 
ATOM      5  C   LIG d   1      23.955   2.440  24.629  0.00  0.00     0.011 A 
ATOM      6  C   LIG d   1      24.503   2.459  23.235  0.00  0.00     0.011 A 
BRANCH   4   7
ATOM      7  C   LIG d   1      25.889   4.164  24.656  0.00  0.00     0.123 C 
BRANCH   7   8
ATOM      8  C   LIG d   1      25.239   4.811  25.890  0.00  0.00     0.173 C 
ATOM      9  O   LIG d   1      25.590   4.326  27.005  0.00  0.00    -0.648 OA
ATOM     10  O   LIG d   1      24.435   5.754  25.645  0.00  0.00    -0.648 OA
ENDBRANCH   7   8
ENDBRANCH   4   7
ENDBRANCH   3   4
ENDBRANCH   2   3
ENDBRANCH   1   2
BRANCH   1  11
ATOM     11  C   LIG d   1      24.383  -1.077  24.816  0.00  0.00    -0.043 A 
ATOM     12  C   LIG d   1      24.387  -1.211  23.416  0.00  0.00     0.019 A 
ATOM     13  C   LIG d   1      23.197  -1.340  22.687  0.00  0.00    -0.036 A 
ATOM     14  C   LIG d   1      21.982  -1.364  23.377  0.00  0.00     0.011 A 
ATOM     15  C   LIG d   1      21.961  -1.259  24.769  0.00  0.00     0.001 A 
ATOM     16  C   LIG d   1      23.151  -1.109  25.483  0.00  0.00     0.008 A 
BRANCH  13  17
ATOM     17  C   LIG d   1      23.278  -1.325  21.219  0.00  0.00     0.014 C 
ATOM     18  C   LIG d   1      24.417  -1.354  20.508  0.00  0.00     0.032 C 
BRANCH  18  19
ATOM     19  C   LIG d   1      24.485  -1.387  19.041  0.00  0.00     0.057 A 
ATOM     20  N   LIG d   1      25.686  -1.771  18.545  0.00  0.00    -0.248 NA
ATOM     21  C   LIG d   1      25.841  -1.849  17.213  0.00  0.00     0.069 A 
ATOM     22  C   LIG d   1      24.805  -1.529  16.310  0.00  0.00    -0.007 A 
ATOM     23  C   LIG d   1      27.059  -2.264  16.696  0.00  0.00     0.056 A 
ATOM     24  C   LIG d   1      23.584  -1.106  16.842  0.00  0.00     0.016 A 
ATOM     25  C   LIG d   1      25.008  -1.634  14.924  0.00  0.00     0.015 A 
ATOM     26  C   LIG d   1      23.423  -1.028  18.221  0.00  0.00     0.032 A 
ATOM     27  C   LIG d   1      26.239  -2.056  14.429  0.00  0.00     0.025 A 
ATOM     28  C   LIG d   1      27.260  -2.369  15.320  0.00  0.00     0.036 A 
ATOM     29 CL   LIG d   1      28.786  -2.888  14.716  0.00  0.00    -0.084 Cl
ENDBRANCH  18  19
ENDBRANCH  13  17
ENDBRANCH   1  11
BRANCH   1  30
ATOM     30  C   LIG d   1      26.923  -1.209  24.752  0.00  0.00     0.025 C 
BRANCH  30  31
ATOM     31  C   LIG d   1      27.337  -2.689  24.842  0.00  0.00     0.040 C 
BRANCH  31  32
ATOM     32  C   LIG d   1      27.046  -3.462  23.568  0.00  0.00    -0.049 A 
ATOM     33  C   LIG d   1      26.262  -4.642  23.480  0.00  0.00    -0.019 A 
ATOM     34  C   LIG d   1      26.029  -5.162  22.181  0.00  0.00     0.011 A 
ATOM     35  C   LIG d   1      26.578  -4.592  21.030  0.00  0.00     0.001 A 
ATOM     36  C   LIG d   1      27.379  -3.469  21.136  0.00  0.00     0.001 A 
ATOM     37  C   LIG d   1      27.605  -2.911  22.389  0.00  0.00     0.007 A 
BRANCH  33  38
ATOM     38  C   LIG d   1      25.650  -5.389  24.681  0.00  0.00     0.078 C 
ATOM     39  C   LIG d   1      24.482  -4.630  25.331  0.00  0.00     0.051 C 
ATOM     40  C   LIG d   1      25.278  -6.836  24.345  0.00  0.00     0.051 C 
BRANCH  38  41
ATOM     41  O   LIG d   1      26.629  -5.512  25.741  0.00  0.00    -0.386 OA
ATOM     42  H   LIG d   1      26.136  -5.483  26.579  0.00  0.00     0.211 HD
ENDBRANCH  38  41
ENDBRANCH  33  38
ENDBRANCH  31  32
ENDBRANCH  30  31
ENDBRANCH   1  30
TORSDOF 13
ENDMDL
MODEL 9
REMARK VINA RESULT:      -7.3     17.470     21.295
REMARK  13 active torsions:
REMARK  status: ('A' for Active; 'I' for Inactive)
REMARK    1  A    between atoms: S_2  and  C_10 
REMARK    2  A    between atoms: S_2  and  C_13 
REMARK    3  A    between atoms: O_5  and  C_23 
REMARK    4  A    between atoms: C_7  and  C_10 
REMARK    5  A    between atoms: C_7  and  C_11 
REMARK    6  A    between atoms: C_11  and  C_12 
REMARK    7  A    between atoms: C_13  and  C_15 
REMARK    8  A    between atoms: C_13  and  C_14 
REMARK    9  A    between atoms: C_14  and  C_16 
REMARK   10  A    between atoms: C_16  and  C_19 
REMARK   11  A    between atoms: C_20  and  C_23 
REMARK   12  A    between atoms: C_21  and  C_28 
REMARK   13  A    between atoms: C_32  and  C_33 
ROOT
ATOM      1  C   LIG d   1      10.579  20.235   1.119  0.00  0.00     0.080 C 
ENDROOT
BRANCH   1   2
ATOM      2  S   LIG d   1      10.043  21.173  -0.370  0.00  0.00    -0.159 SA
BRANCH   2   3
ATOM      3  C   LIG d   1       8.241  21.127  -0.097  0.00  0.00     0.084 C 
BRANCH   3   4
ATOM      4  C   LIG d   1       7.548  22.089  -1.042  0.00  0.00    -0.022 A 
ATOM      5  C   LIG d   1       6.145  22.544  -0.677  0.00  0.00     0.011 A 
ATOM      6  C   LIG d   1       6.336  21.595  -1.820  0.00  0.00     0.011 A 
BRANCH   4   7
ATOM      7  C   LIG d   1       8.452  23.130  -1.700  0.00  0.00     0.123 C 
BRANCH   7   8
ATOM      8  C   LIG d   1       8.422  24.497  -0.998  0.00  0.00     0.173 C 
ATOM      9  O   LIG d   1       7.863  25.428  -1.648  0.00  0.00    -0.648 OA
ATOM     10  O   LIG d   1       8.954  24.528   0.147  0.00  0.00    -0.648 OA
ENDBRANCH   7   8
ENDBRANCH   4   7
ENDBRANCH   3   4
ENDBRANCH   2   3
ENDBRANCH   1   2
BRANCH   1  11
ATOM     11  C   LIG d   1      11.348  21.116   2.096  0.00  0.00    -0.043 A 
ATOM     12  C   LIG d   1      11.857  20.607   3.305  0.00  0.00     0.019 A 
ATOM     13  C   LIG d   1      12.541  21.425   4.216  0.00  0.00    -0.036 A 
ATOM     14  C   LIG d   1      12.744  22.770   3.894  0.00  0.00     0.011 A 
ATOM     15  C   LIG d   1      12.269  23.285   2.686  0.00  0.00     0.001 A 
ATOM     16  C   LIG d   1      11.570  22.467   1.798  0.00  0.00     0.008 A 
BRANCH  13  17
ATOM     17  C   LIG d   1      12.909  20.853   5.519  0.00  0.00     0.014 C 
ATOM     18  C   LIG d   1      12.662  19.592   5.907  0.00  0.00     0.032 C 
BRANCH  18  19
ATOM     19  C   LIG d   1      13.078  19.017   7.194  0.00  0.00     0.057 A 
ATOM     20  N   LIG d   1      12.199  18.129   7.719  0.00  0.00    -0.248 NA
ATOM     21  C   LIG d   1      12.500  17.535   8.886  0.00  0.00     0.069 A 
ATOM     22  C   LIG d   1      13.687  17.817   9.595  0.00  0.00    -0.007 A 
ATOM     23  C   LIG d   1      11.619  16.607   9.419  0.00  0.00     0.056 A 
ATOM     24  C   LIG d   1      14.564  18.759   9.052  0.00  0.00     0.016 A 
ATOM     25  C   LIG d   1      13.965  17.166  10.809  0.00  0.00     0.015 A 
ATOM     26  C   LIG d   1      14.254  19.370   7.841  0.00  0.00     0.032 A 
ATOM     27  C   LIG d   1      13.066  16.235  11.323  0.00  0.00     0.025 A 
ATOM     28  C   LIG d   1      11.896  15.960  10.624  0.00  0.00     0.036 A 
ATOM     29 CL   LIG d   1      10.779  14.813  11.255  0.00  0.00    -0.084 Cl
ENDBRANCH  18  19
ENDBRANCH  13  17
ENDBRANCH   1  11
BRANCH   1  30
ATOM     30  C   LIG d   1       9.338  19.592   1.770  0.00  0.00     0.025 C 
BRANCH  30  31
ATOM     31  C   LIG d   1       9.468  18.060   1.866  0.00  0.00     0.040 C 
BRANCH  31  32
ATOM     32  C   LIG d   1       9.380  17.549   3.292  0.00  0.00    -0.049 A 
ATOM     33  C   LIG d   1       9.502  16.192   3.692  0.00  0.00    -0.019 A 
ATOM     34  C   LIG d   1       9.484  15.929   5.086  0.00  0.00     0.011 A 
ATOM     35  C   LIG d   1       9.301  16.932   6.040  0.00  0.00     0.001 A 
ATOM     36  C   LIG d   1       9.136  18.245   5.634  0.00  0.00     0.001 A 
ATOM     37  C   LIG d   1       9.179  18.546   4.278  0.00  0.00     0.007 A 
BRANCH  33  38
ATOM     38  C   LIG d   1       9.653  14.998   2.730  0.00  0.00     0.078 C 
ATOM     39  C   LIG d   1       9.757  13.647   3.458  0.00  0.00     0.051 C 
ATOM     40  C   LIG d   1       8.577  14.981   1.641  0.00  0.00     0.051 C 
BRANCH  38  41
ATOM     41  O   LIG d   1      10.897  15.104   1.997  0.00  0.00    -0.386 OA
ATOM     42  H   LIG d   1      10.847  15.929   1.484  0.00  0.00     0.211 HD
ENDBRANCH  38  41
ENDBRANCH  33  38
ENDBRANCH  31  32
ENDBRANCH  30  31
ENDBRANCH   1  30
TORSDOF 13
ENDMDL
