MODEL 1
REMARK VINA RESULT:      -8.4      0.000      0.000
REMARK  13 active torsions:
REMARK  status: ('A' for Active; 'I' for Inactive)
REMARK    1  A    between atoms: O_4  and  C_21 
REMARK    2  A    between atoms: O_4  and  C_27 
REMARK    3  A    between atoms: O_5  and  C_43 
REMARK    4  A    between atoms: N_7  and  C_19 
REMARK    5  A    between atoms: N_9  and  C_33 
REMARK    6  A    between atoms: N_10  and  C_39 
REMARK    7  A    between atoms: N_12  and  C_40 
REMARK    8  A    between atoms: N_13  and  C_44 
REMARK    9  A    between atoms: C_15  and  C_19 
REMARK   10  A    between atoms: C_15  and  C_20 
REMARK   11  A    between atoms: C_17  and  C_21 
REMARK   12  A    between atoms: C_40  and  C_45 
REMARK   13  A    between atoms: C_40  and  C_43 
ROOT
ATOM      1  F   LIG d   1       6.484  18.924   2.717  0.00  0.00    -0.204 F 
ATOM      2  F   LIG d   1       7.957  21.374  -1.013  0.00  0.00    -0.204 F 
ATOM      3  C   LIG d   1       8.445  18.188   1.594  0.00  0.00     0.032 A 
ATOM      4  C   LIG d   1       7.370  19.079   1.722  0.00  0.00     0.141 A 
ATOM      5  C   LIG d   1       9.382  18.442   0.571  0.00  0.00     0.003 A 
ATOM      6  C   LIG d   1       7.188  20.142   0.842  0.00  0.00     0.059 A 
ATOM      7  C   LIG d   1       9.220  19.518  -0.303  0.00  0.00     0.030 A 
ATOM      8  C   LIG d   1       8.118  20.350  -0.166  0.00  0.00     0.142 A 
ENDROOT
BRANCH   3   9
ATOM      9  C   LIG d   1       8.645  17.022   2.562  0.00  0.00     0.136 C 
ATOM     10  O   LIG d   1       9.777  16.231   2.086  0.00  0.00    -0.353 OA
ATOM     11  C   LIG d   1       9.251  15.099   1.377  0.00  0.00     0.145 C 
ATOM     12  C   LIG d   1       8.092  14.657   2.240  0.00  0.00     0.063 C 
ATOM     13  C   LIG d   1       7.469  16.002   2.590  0.00  0.00     0.039 C 
BRANCH  12  14
ATOM     14  C   LIG d   1       8.647  13.895   3.445  0.00  0.00     0.151 C 
BRANCH  14  15
ATOM     15  O   LIG d   1       8.996  12.553   3.106  0.00  0.00    -0.331 OA
BRANCH  15  16
ATOM     16  C   LIG d   1       7.995  11.640   3.326  0.00  0.00     0.094 A 
ATOM     17  C   LIG d   1       7.165  11.109   2.347  0.00  0.00     0.026 A 
ATOM     18  C   LIG d   1       6.153  10.201   2.680  0.00  0.00     0.019 A 
ATOM     19  C   LIG d   1       5.910   9.786   3.998  0.00  0.00     0.056 A 
ATOM     20  C   LIG d   1       6.798  10.301   4.961  0.00  0.00     0.019 A 
ATOM     21  C   LIG d   1       7.817  11.215   4.637  0.00  0.00     0.026 A 
BRANCH  19  22
ATOM     22  N   LIG d   1       4.889   8.866   4.311  0.00  0.00    -0.345 N 
ATOM     23  C   LIG d   1       4.518   7.883   3.256  0.00  0.00     0.119 C 
ATOM     24  C   LIG d   1       3.239   7.099   3.628  0.00  0.00     0.101 C 
ATOM     25  N   LIG d   1       3.389   6.430   4.940  0.00  0.00    -0.249 NA
ATOM     26  C   LIG d   1       3.674   7.419   6.002  0.00  0.00     0.101 C 
ATOM     27  C   LIG d   1       4.932   8.247   5.668  0.00  0.00     0.119 C 
BRANCH  25  28
ATOM     28  C   LIG d   1       2.346   5.569   5.319  0.00  0.00     0.037 A 
ATOM     29  C   LIG d   1       1.151   5.442   4.611  0.00  0.00     0.013 A 
ATOM     30  C   LIG d   1       0.157   4.543   5.019  0.00  0.00     0.019 A 
ATOM     31  C   LIG d   1       0.322   3.729   6.146  0.00  0.00     0.070 A 
ATOM     32  C   LIG d   1       1.505   3.887   6.882  0.00  0.00     0.019 A 
ATOM     33  C   LIG d   1       2.494   4.795   6.475  0.00  0.00     0.013 A 
BRANCH  31  34
ATOM     34  N   LIG d   1      -0.650   2.762   6.498  0.00  0.00    -0.240 N 
ATOM     35  C   LIG d   1      -1.429   2.720   7.645  0.00  0.00     0.352 A 
ATOM     36  O   LIG d   1      -1.386   3.452   8.624  0.00  0.00    -0.244 OA
ATOM     37  N   LIG d   1      -2.296   1.628   7.466  0.00  0.00    -0.200 N 
ATOM     38  N   LIG d   1      -2.003   0.983   6.284  0.00  0.00    -0.144 NA
ATOM     39  C   LIG d   1      -1.047   1.693   5.774  0.00  0.00     0.207 A 
BRANCH  37  40
ATOM     40  C   LIG d   1      -3.203   1.022   8.443  0.00  0.00     0.137 C 
BRANCH  40  41
ATOM     41  C   LIG d   1      -4.633   0.916   7.879  0.00  0.00     0.027 C 
ATOM     42  C   LIG d   1      -5.382   2.243   7.901  0.00  0.00     0.002 C 
ENDBRANCH  40  41
BRANCH  40  43
ATOM     43  C   LIG d   1      -2.722  -0.344   9.014  0.00  0.00     0.133 C 
ATOM     44  C   LIG d   1      -1.301  -0.319   9.566  0.00  0.00     0.034 C 
BRANCH  43  45
ATOM     45  O   LIG d   1      -2.877  -1.404   8.070  0.00  0.00    -0.383 OA
ATOM     46  H   LIG d   1      -3.299  -2.160   8.510  0.00  0.00     0.210 HD
ENDBRANCH  43  45
ENDBRANCH  40  43
ENDBRANCH  37  40
ENDBRANCH  31  34
ENDBRANCH  25  28
ENDBRANCH  19  22
ENDBRANCH  15  16
ENDBRANCH  14  15
ENDBRANCH  12  14
BRANCH   9  47
ATOM     47  C   LIG d   1       8.936  17.527   3.995  0.00  0.00     0.161 C 
BRANCH  47  48
ATOM     48  N   LIG d   1      10.260  18.080   4.179  0.00  0.00    -0.228 N 
ATOM     49  N   LIG d   1      10.540  19.352   3.838  0.00  0.00    -0.145 NA
ATOM     50  C   LIG d   1      11.827  19.438   4.186  0.00  0.00     0.221 A 
ATOM     51  N   LIG d   1      12.354  18.315   4.757  0.00  0.00    -0.201 NA
ATOM     52  C   LIG d   1      11.340  17.480   4.750  0.00  0.00     0.197 A 
ENDBRANCH  47  48
ENDBRANCH   9  47
ENDBRANCH   3   9
TORSDOF 13
ENDMDL
MODEL 2
REMARK VINA RESULT:      -7.7      2.516      4.794
REMARK  13 active torsions:
REMARK  status: ('A' for Active; 'I' for Inactive)
REMARK    1  A    between atoms: O_4  and  C_21 
REMARK    2  A    between atoms: O_4  and  C_27 
REMARK    3  A    between atoms: O_5  and  C_43 
REMARK    4  A    between atoms: N_7  and  C_19 
REMARK    5  A    between atoms: N_9  and  C_33 
REMARK    6  A    between atoms: N_10  and  C_39 
REMARK    7  A    between atoms: N_12  and  C_40 
REMARK    8  A    between atoms: N_13  and  C_44 
REMARK    9  A    between atoms: C_15  and  C_19 
REMARK   10  A    between atoms: C_15  and  C_20 
REMARK   11  A    between atoms: C_17  and  C_21 
REMARK   12  A    between atoms: C_40  and  C_45 
REMARK   13  A    between atoms: C_40  and  C_43 
ROOT
ATOM      1  F   LIG d   1       6.477  20.866  -2.007  0.00  0.00    -0.204 F 
ATOM      2  F   LIG d   1       3.303  23.758  -0.096  0.00  0.00    -0.204 F 
ATOM      3  C   LIG d   1       6.706  21.422   0.292  0.00  0.00     0.032 A 
ATOM      4  C   LIG d   1       6.035  21.537  -0.933  0.00  0.00     0.141 A 
ATOM      5  C   LIG d   1       6.154  22.095   1.402  0.00  0.00     0.003 A 
ATOM      6  C   LIG d   1       4.902  22.332  -1.078  0.00  0.00     0.059 A 
ATOM      7  C   LIG d   1       5.006  22.877   1.272  0.00  0.00     0.030 A 
ATOM      8  C   LIG d   1       4.398  22.997   0.030  0.00  0.00     0.142 A 
ENDROOT
BRANCH   3   9
ATOM      9  C   LIG d   1       7.949  20.547   0.451  0.00  0.00     0.136 C 
ATOM     10  O   LIG d   1       7.694  19.276  -0.223  0.00  0.00    -0.353 OA
ATOM     11  C   LIG d   1       7.318  18.319   0.780  0.00  0.00     0.145 C 
ATOM     12  C   LIG d   1       8.276  18.607   1.912  0.00  0.00     0.063 C 
ATOM     13  C   LIG d   1       8.258  20.130   1.918  0.00  0.00     0.039 C 
BRANCH  12  14
ATOM     14  C   LIG d   1       9.637  18.002   1.562  0.00  0.00     0.151 C 
BRANCH  14  15
ATOM     15  O   LIG d   1      10.153  17.210   2.631  0.00  0.00    -0.331 OA
BRANCH  15  16
ATOM     16  C   LIG d   1       9.424  16.075   2.891  0.00  0.00     0.094 A 
ATOM     17  C   LIG d   1       9.163  15.062   1.977  0.00  0.00     0.026 A 
ATOM     18  C   LIG d   1       8.383  13.957   2.335  0.00  0.00     0.019 A 
ATOM     19  C   LIG d   1       7.817  13.808   3.610  0.00  0.00     0.056 A 
ATOM     20  C   LIG d   1       8.140  14.823   4.530  0.00  0.00     0.019 A 
ATOM     21  C   LIG d   1       8.922  15.940   4.179  0.00  0.00     0.026 A 
BRANCH  19  22
ATOM     22  N   LIG d   1       7.040  12.683   3.951  0.00  0.00    -0.345 N 
ATOM     23  C   LIG d   1       7.508  11.361   3.451  0.00  0.00     0.119 C 
ATOM     24  C   LIG d   1       6.454  10.255   3.684  0.00  0.00     0.101 C 
ATOM     25  N   LIG d   1       6.078  10.173   5.113  0.00  0.00    -0.249 NA
ATOM     26  C   LIG d   1       5.533  11.464   5.587  0.00  0.00     0.101 C 
ATOM     27  C   LIG d   1       6.540  12.610   5.355  0.00  0.00     0.119 C 
BRANCH  25  28
ATOM     28  C   LIG d   1       5.235   9.108   5.472  0.00  0.00     0.037 A 
ATOM     29  C   LIG d   1       4.568   9.025   6.694  0.00  0.00     0.013 A 
ATOM     30  C   LIG d   1       3.715   7.953   6.985  0.00  0.00     0.019 A 
ATOM     31  C   LIG d   1       3.488   6.925   6.063  0.00  0.00     0.070 A 
ATOM     32  C   LIG d   1       4.191   6.985   4.851  0.00  0.00     0.019 A 
ATOM     33  C   LIG d   1       5.051   8.056   4.567  0.00  0.00     0.013 A 
BRANCH  31  34
ATOM     34  N   LIG d   1       2.556   5.893   6.332  0.00  0.00    -0.240 N 
ATOM     35  C   LIG d   1       1.271   5.757   5.828  0.00  0.00     0.352 A 
ATOM     36  O   LIG d   1       0.643   6.532   5.119  0.00  0.00    -0.244 OA
ATOM     37  N   LIG d   1       0.808   4.524   6.317  0.00  0.00    -0.200 N 
ATOM     38  N   LIG d   1       1.752   3.965   7.151  0.00  0.00    -0.144 NA
ATOM     39  C   LIG d   1       2.736   4.804   7.110  0.00  0.00     0.207 A 
BRANCH  37  40
ATOM     40  C   LIG d   1      -0.545   3.971   6.242  0.00  0.00     0.137 C 
BRANCH  40  41
ATOM     41  C   LIG d   1      -0.513   2.429   6.228  0.00  0.00     0.027 C 
ATOM     42  C   LIG d   1      -1.739   1.802   6.881  0.00  0.00     0.002 C 
ENDBRANCH  40  41
BRANCH  40  43
ATOM     43  C   LIG d   1      -1.525   4.501   7.330  0.00  0.00     0.133 C 
ATOM     44  C   LIG d   1      -2.363   5.694   6.879  0.00  0.00     0.034 C 
BRANCH  43  45
ATOM     45  O   LIG d   1      -0.856   4.791   8.557  0.00  0.00    -0.383 OA
ATOM     46  H   LIG d   1      -0.325   4.021   8.818  0.00  0.00     0.210 HD
ENDBRANCH  43  45
ENDBRANCH  40  43
ENDBRANCH  37  40
ENDBRANCH  31  34
ENDBRANCH  25  28
ENDBRANCH  19  22
ENDBRANCH  15  16
ENDBRANCH  14  15
ENDBRANCH  12  14
BRANCH   9  47
ATOM     47  C   LIG d   1       9.193  21.220  -0.176  0.00  0.00     0.161 C 
BRANCH  47  48
ATOM     48  N   LIG d   1       9.994  21.985   0.756  0.00  0.00    -0.228 N 
ATOM     49  N   LIG d   1      11.170  21.516   1.216  0.00  0.00    -0.145 NA
ATOM     50  C   LIG d   1      11.560  22.522   2.005  0.00  0.00     0.221 A 
ATOM     51  N   LIG d   1      10.723  23.600   2.034  0.00  0.00    -0.201 NA
ATOM     52  C   LIG d   1       9.751  23.238   1.228  0.00  0.00     0.197 A 
ENDBRANCH  47  48
ENDBRANCH   9  47
ENDBRANCH   3   9
TORSDOF 13
ENDMDL
MODEL 3
REMARK VINA RESULT:      -7.5      3.533      4.566
REMARK  13 active torsions:
REMARK  status: ('A' for Active; 'I' for Inactive)
REMARK    1  A    between atoms: O_4  and  C_21 
REMARK    2  A    between atoms: O_4  and  C_27 
REMARK    3  A    between atoms: O_5  and  C_43 
REMARK    4  A    between atoms: N_7  and  C_19 
REMARK    5  A    between atoms: N_9  and  C_33 
REMARK    6  A    between atoms: N_10  and  C_39 
REMARK    7  A    between atoms: N_12  and  C_40 
REMARK    8  A    between atoms: N_13  and  C_44 
REMARK    9  A    between atoms: C_15  and  C_19 
REMARK   10  A    between atoms: C_15  and  C_20 
REMARK   11  A    between atoms: C_17  and  C_21 
REMARK   12  A    between atoms: C_40  and  C_45 
REMARK   13  A    between atoms: C_40  and  C_43 
ROOT
ATOM      1  F   LIG d   1      10.736  21.237   0.618  0.00  0.00    -0.204 F 
ATOM      2  F   LIG d   1       7.557  23.302  -2.160  0.00  0.00    -0.204 F 
ATOM      3  C   LIG d   1       8.530  20.354   0.588  0.00  0.00     0.032 A 
ATOM      4  C   LIG d   1       9.478  21.293   0.158  0.00  0.00     0.141 A 
ATOM      5  C   LIG d   1       7.242  20.421   0.017  0.00  0.00     0.003 A 
ATOM      6  C   LIG d   1       9.156  22.297  -0.752  0.00  0.00     0.059 A 
ATOM      7  C   LIG d   1       6.916  21.410  -0.912  0.00  0.00     0.030 A 
ATOM      8  C   LIG d   1       7.874  22.346  -1.278  0.00  0.00     0.142 A 
ENDROOT
BRANCH   3   9
ATOM      9  C   LIG d   1       8.884  19.251   1.585  0.00  0.00     0.136 C 
ATOM     10  O   LIG d   1      10.158  18.665   1.175  0.00  0.00    -0.353 OA
ATOM     11  C   LIG d   1       9.871  17.451   0.464  0.00  0.00     0.145 C 
ATOM     12  C   LIG d   1       8.767  16.823   1.282  0.00  0.00     0.063 C 
ATOM     13  C   LIG d   1       7.904  18.042   1.580  0.00  0.00     0.039 C 
BRANCH  12  14
ATOM     14  C   LIG d   1       9.388  16.181   2.524  0.00  0.00     0.151 C 
BRANCH  14  15
ATOM     15  O   LIG d   1       8.413  15.943   3.539  0.00  0.00    -0.331 OA
BRANCH  15  16
ATOM     16  C   LIG d   1       7.731  14.761   3.394  0.00  0.00     0.094 A 
ATOM     17  C   LIG d   1       8.303  13.495   3.424  0.00  0.00     0.026 A 
ATOM     18  C   LIG d   1       7.520  12.350   3.239  0.00  0.00     0.019 A 
ATOM     19  C   LIG d   1       6.137  12.405   3.005  0.00  0.00     0.056 A 
ATOM     20  C   LIG d   1       5.577  13.696   3.031  0.00  0.00     0.019 A 
ATOM     21  C   LIG d   1       6.356  14.854   3.215  0.00  0.00     0.026 A 
BRANCH  19  22
ATOM     22  N   LIG d   1       5.367  11.238   2.828  0.00  0.00    -0.345 N 
ATOM     23  C   LIG d   1       5.986   9.949   3.241  0.00  0.00     0.119 C 
ATOM     24  C   LIG d   1       5.148   8.736   2.776  0.00  0.00     0.101 C 
ATOM     25  N   LIG d   1       3.756   8.833   3.271  0.00  0.00    -0.249 NA
ATOM     26  C   LIG d   1       3.114  10.075   2.789  0.00  0.00     0.101 C 
ATOM     27  C   LIG d   1       3.926  11.318   3.207  0.00  0.00     0.119 C 
BRANCH  25  28
ATOM     28  C   LIG d   1       2.937   7.716   3.036  0.00  0.00     0.037 A 
ATOM     29  C   LIG d   1       3.404   6.403   3.023  0.00  0.00     0.013 A 
ATOM     30  C   LIG d   1       2.534   5.324   2.812  0.00  0.00     0.019 A 
ATOM     31  C   LIG d   1       1.162   5.516   2.614  0.00  0.00     0.070 A 
ATOM     32  C   LIG d   1       0.699   6.840   2.584  0.00  0.00     0.019 A 
ATOM     33  C   LIG d   1       1.575   7.917   2.787  0.00  0.00     0.013 A 
BRANCH  31  34
ATOM     34  N   LIG d   1       0.279   4.417   2.491  0.00  0.00    -0.240 N 
ATOM     35  C   LIG d   1       0.077   3.611   1.380  0.00  0.00     0.352 A 
ATOM     36  O   LIG d   1       0.548   3.726   0.258  0.00  0.00    -0.244 OA
ATOM     37  N   LIG d   1      -0.816   2.612   1.804  0.00  0.00    -0.200 N 
ATOM     38  N   LIG d   1      -1.202   2.846   3.106  0.00  0.00    -0.144 NA
ATOM     39  C   LIG d   1      -0.529   3.899   3.442  0.00  0.00     0.207 A 
BRANCH  37  40
ATOM     40  C   LIG d   1      -1.505   1.609   0.989  0.00  0.00     0.137 C 
BRANCH  40  41
ATOM     41  C   LIG d   1      -2.708   2.227   0.251  0.00  0.00     0.027 C 
ATOM     42  C   LIG d   1      -2.365   2.701  -1.156  0.00  0.00     0.002 C 
ENDBRANCH  40  41
BRANCH  40  43
ATOM     43  C   LIG d   1      -0.585   0.827   0.006  0.00  0.00     0.133 C 
ATOM     44  C   LIG d   1      -1.185  -0.485  -0.491  0.00  0.00     0.034 C 
BRANCH  43  45
ATOM     45  O   LIG d   1       0.718   0.612   0.548  0.00  0.00    -0.383 OA
ATOM     46  H   LIG d   1       1.240   0.088  -0.082  0.00  0.00     0.210 HD
ENDBRANCH  43  45
ENDBRANCH  40  43
ENDBRANCH  37  40
ENDBRANCH  31  34
ENDBRANCH  25  28
ENDBRANCH  19  22
ENDBRANCH  15  16
ENDBRANCH  14  15
ENDBRANCH  12  14
BRANCH   9  47
ATOM     47  C   LIG d   1       9.015  19.813   3.021  0.00  0.00     0.161 C 
BRANCH  47  48
ATOM     48  N   LIG d   1      10.363  19.801   3.548  0.00  0.00    -0.228 N 
ATOM     49  N   LIG d   1      10.936  18.660   3.977  0.00  0.00    -0.145 NA
ATOM     50  C   LIG d   1      12.143  19.098   4.346  0.00  0.00     0.221 A 
ATOM     51  N   LIG d   1      12.371  20.429   4.138  0.00  0.00    -0.201 NA
ATOM     52  C   LIG d   1      11.236  20.843   3.623  0.00  0.00     0.197 A 
ENDBRANCH  47  48
ENDBRANCH   9  47
ENDBRANCH   3   9
TORSDOF 13
ENDMDL
MODEL 4
REMARK VINA RESULT:      -7.3      2.310      3.362
REMARK  13 active torsions:
REMARK  status: ('A' for Active; 'I' for Inactive)
REMARK    1  A    between atoms: O_4  and  C_21 
REMARK    2  A    between atoms: O_4  and  C_27 
REMARK    3  A    between atoms: O_5  and  C_43 
REMARK    4  A    between atoms: N_7  and  C_19 
REMARK    5  A    between atoms: N_9  and  C_33 
REMARK    6  A    between atoms: N_10  and  C_39 
REMARK    7  A    between atoms: N_12  and  C_40 
REMARK    8  A    between atoms: N_13  and  C_44 
REMARK    9  A    between atoms: C_15  and  C_19 
REMARK   10  A    between atoms: C_15  and  C_20 
REMARK   11  A    between atoms: C_17  and  C_21 
REMARK   12  A    between atoms: C_40  and  C_45 
REMARK   13  A    between atoms: C_40  and  C_43 
ROOT
ATOM      1  F   LIG d   1      10.775  21.205   0.556  0.00  0.00    -0.204 F 
ATOM      2  F   LIG d   1       7.496  23.286  -2.090  0.00  0.00    -0.204 F 
ATOM      3  C   LIG d   1       8.580  20.296   0.569  0.00  0.00     0.032 A 
ATOM      4  C   LIG d   1       9.505  21.255   0.132  0.00  0.00     0.141 A 
ATOM      5  C   LIG d   1       7.276  20.358   0.035  0.00  0.00     0.003 A 
ATOM      6  C   LIG d   1       9.146  22.272  -0.748  0.00  0.00     0.059 A 
ATOM      7  C   LIG d   1       6.913  21.361  -0.864  0.00  0.00     0.030 A 
ATOM      8  C   LIG d   1       7.849  22.316  -1.237  0.00  0.00     0.142 A 
ENDROOT
BRANCH   3   9
ATOM      9  C   LIG d   1       8.975  19.177   1.533  0.00  0.00     0.136 C 
ATOM     10  O   LIG d   1      10.210  18.572   1.039  0.00  0.00    -0.353 OA
ATOM     11  C   LIG d   1       9.857  17.370   0.338  0.00  0.00     0.145 C 
ATOM     12  C   LIG d   1       8.794  16.754   1.217  0.00  0.00     0.063 C 
ATOM     13  C   LIG d   1       7.974  17.986   1.578  0.00  0.00     0.039 C 
BRANCH  12  14
ATOM     14  C   LIG d   1       9.480  16.090   2.413  0.00  0.00     0.151 C 
BRANCH  14  15
ATOM     15  O   LIG d   1       8.574  15.895   3.499  0.00  0.00    -0.331 OA
BRANCH  15  16
ATOM     16  C   LIG d   1       7.847  14.733   3.422  0.00  0.00     0.094 A 
ATOM     17  C   LIG d   1       8.383  13.457   3.307  0.00  0.00     0.026 A 
ATOM     18  C   LIG d   1       7.551  12.336   3.208  0.00  0.00     0.019 A 
ATOM     19  C   LIG d   1       6.151  12.427   3.207  0.00  0.00     0.056 A 
ATOM     20  C   LIG d   1       5.637  13.726   3.376  0.00  0.00     0.019 A 
ATOM     21  C   LIG d   1       6.464  14.860   3.475  0.00  0.00     0.026 A 
BRANCH  19  22
ATOM     22  N   LIG d   1       5.333  11.284   3.112  0.00  0.00    -0.345 N 
ATOM     23  C   LIG d   1       6.008   9.960   3.191  0.00  0.00     0.119 C 
ATOM     24  C   LIG d   1       5.045   8.804   2.836  0.00  0.00     0.101 C 
ATOM     25  N   LIG d   1       3.841   8.832   3.697  0.00  0.00    -0.249 NA
ATOM     26  C   LIG d   1       3.124  10.118   3.552  0.00  0.00     0.101 C 
ATOM     27  C   LIG d   1       4.050  11.309   3.874  0.00  0.00     0.119 C 
BRANCH  25  28
ATOM     28  C   LIG d   1       2.961   7.746   3.566  0.00  0.00     0.037 A 
ATOM     29  C   LIG d   1       3.099   6.750   2.600  0.00  0.00     0.013 A 
ATOM     30  C   LIG d   1       2.207   5.671   2.535  0.00  0.00     0.019 A 
ATOM     31  C   LIG d   1       1.146   5.541   3.439  0.00  0.00     0.070 A 
ATOM     32  C   LIG d   1       0.981   6.565   4.382  0.00  0.00     0.019 A 
ATOM     33  C   LIG d   1       1.872   7.648   4.438  0.00  0.00     0.013 A 
BRANCH  31  34
ATOM     34  N   LIG d   1       0.304   4.403   3.421  0.00  0.00    -0.240 N 
ATOM     35  C   LIG d   1      -0.546   3.961   4.424  0.00  0.00     0.352 A 
ATOM     36  O   LIG d   1      -0.688   4.404   5.555  0.00  0.00    -0.244 OA
ATOM     37  N   LIG d   1      -1.226   2.860   3.875  0.00  0.00    -0.200 N 
ATOM     38  N   LIG d   1      -0.750   2.595   2.610  0.00  0.00    -0.144 NA
ATOM     39  C   LIG d   1       0.126   3.527   2.408  0.00  0.00     0.207 A 
BRANCH  37  40
ATOM     40  C   LIG d   1      -2.105   1.908   4.557  0.00  0.00     0.137 C 
BRANCH  40  41
ATOM     41  C   LIG d   1      -1.371   1.210   5.719  0.00  0.00     0.027 C 
ATOM     42  C   LIG d   1      -1.571  -0.301   5.729  0.00  0.00     0.002 C 
ENDBRANCH  40  41
BRANCH  40  43
ATOM     43  C   LIG d   1      -3.464   2.503   5.030  0.00  0.00     0.133 C 
ATOM     44  C   LIG d   1      -4.098   3.468   4.032  0.00  0.00     0.034 C 
BRANCH  43  45
ATOM     45  O   LIG d   1      -3.365   3.105   6.320  0.00  0.00    -0.383 OA
ATOM     46  H   LIG d   1      -3.176   2.416   6.977  0.00  0.00     0.210 HD
ENDBRANCH  43  45
ENDBRANCH  40  43
ENDBRANCH  37  40
ENDBRANCH  31  34
ENDBRANCH  25  28
ENDBRANCH  19  22
ENDBRANCH  15  16
ENDBRANCH  14  15
ENDBRANCH  12  14
BRANCH   9  47
ATOM     47  C   LIG d   1       9.205  19.723   2.962  0.00  0.00     0.161 C 
BRANCH  47  48
ATOM     48  N   LIG d   1      10.521  19.455   3.501  0.00  0.00    -0.228 N 
ATOM     49  N   LIG d   1      11.545  20.306   3.301  0.00  0.00    -0.145 NA
ATOM     50  C   LIG d   1      12.527  19.693   3.969  0.00  0.00     0.221 A 
ATOM     51  N   LIG d   1      12.169  18.538   4.604  0.00  0.00    -0.201 NA
ATOM     52  C   LIG d   1      10.897  18.419   4.301  0.00  0.00     0.197 A 
ENDBRANCH  47  48
ENDBRANCH   9  47
ENDBRANCH   3   9
TORSDOF 13
ENDMDL
MODEL 5
REMARK VINA RESULT:      -7.3      4.250      7.978
REMARK  13 active torsions:
REMARK  status: ('A' for Active; 'I' for Inactive)
REMARK    1  A    between atoms: O_4  and  C_21 
REMARK    2  A    between atoms: O_4  and  C_27 
REMARK    3  A    between atoms: O_5  and  C_43 
REMARK    4  A    between atoms: N_7  and  C_19 
REMARK    5  A    between atoms: N_9  and  C_33 
REMARK    6  A    between atoms: N_10  and  C_39 
REMARK    7  A    between atoms: N_12  and  C_40 
REMARK    8  A    between atoms: N_13  and  C_44 
REMARK    9  A    between atoms: C_15  and  C_19 
REMARK   10  A    between atoms: C_15  and  C_20 
REMARK   11  A    between atoms: C_17  and  C_21 
REMARK   12  A    between atoms: C_40  and  C_45 
REMARK   13  A    between atoms: C_40  and  C_43 
ROOT
ATOM      1  F   LIG d   1       4.000  22.118   1.518  0.00  0.00    -0.204 F 
ATOM      2  F   LIG d   1       0.967  24.850  -0.810  0.00  0.00    -0.204 F 
ATOM      3  C   LIG d   1       4.864  23.626  -0.101  0.00  0.00     0.032 A 
ATOM      4  C   LIG d   1       3.783  23.060   0.590  0.00  0.00     0.141 A 
ATOM      5  C   LIG d   1       4.581  24.661  -1.016  0.00  0.00     0.003 A 
ATOM      6  C   LIG d   1       2.470  23.453   0.347  0.00  0.00     0.059 A 
ATOM      7  C   LIG d   1       3.270  25.077  -1.250  0.00  0.00     0.030 A 
ATOM      8  C   LIG d   1       2.226  24.459  -0.575  0.00  0.00     0.142 A 
ENDROOT
BRANCH   3   9
ATOM      9  C   LIG d   1       6.306  23.196   0.168  0.00  0.00     0.136 C 
ATOM     10  O   LIG d   1       7.139  23.712  -0.916  0.00  0.00    -0.353 OA
ATOM     11  C   LIG d   1       7.359  22.639  -1.845  0.00  0.00     0.145 C 
ATOM     12  C   LIG d   1       7.613  21.450  -0.949  0.00  0.00     0.063 C 
ATOM     13  C   LIG d   1       6.539  21.658   0.111  0.00  0.00     0.039 C 
BRANCH  12  14
ATOM     14  C   LIG d   1       9.043  21.543  -0.413  0.00  0.00     0.151 C 
BRANCH  14  15
ATOM     15  O   LIG d   1       9.119  21.151   0.958  0.00  0.00    -0.331 OA
BRANCH  15  16
ATOM     16  C   LIG d   1       8.799  19.836   1.184  0.00  0.00     0.094 A 
ATOM     17  C   LIG d   1       9.312  18.753   0.481  0.00  0.00     0.026 A 
ATOM     18  C   LIG d   1       8.898  17.448   0.773  0.00  0.00     0.019 A 
ATOM     19  C   LIG d   1       7.950  17.156   1.765  0.00  0.00     0.056 A 
ATOM     20  C   LIG d   1       7.486  18.267   2.495  0.00  0.00     0.019 A 
ATOM     21  C   LIG d   1       7.895  19.583   2.208  0.00  0.00     0.026 A 
BRANCH  19  22
ATOM     22  N   LIG d   1       7.553  15.834   2.047  0.00  0.00    -0.345 N 
ATOM     23  C   LIG d   1       8.535  14.754   1.751  0.00  0.00     0.119 C 
ATOM     24  C   LIG d   1       7.898  13.351   1.874  0.00  0.00     0.101 C 
ATOM     25  N   LIG d   1       7.292  13.159   3.211  0.00  0.00    -0.249 NA
ATOM     26  C   LIG d   1       6.256  14.182   3.468  0.00  0.00     0.101 C 
ATOM     27  C   LIG d   1       6.835  15.605   3.335  0.00  0.00     0.119 C 
BRANCH  25  28
ATOM     28  C   LIG d   1       6.810  11.870   3.492  0.00  0.00     0.037 A 
ATOM     29  C   LIG d   1       6.977  11.231   4.720  0.00  0.00     0.013 A 
ATOM     30  C   LIG d   1       6.448   9.956   4.954  0.00  0.00     0.019 A 
ATOM     31  C   LIG d   1       5.723   9.270   3.972  0.00  0.00     0.070 A 
ATOM     32  C   LIG d   1       5.592   9.893   2.723  0.00  0.00     0.019 A 
ATOM     33  C   LIG d   1       6.131  11.168   2.490  0.00  0.00     0.013 A 
BRANCH  31  34
ATOM     34  N   LIG d   1       5.117   8.021   4.247  0.00  0.00    -0.240 N 
ATOM     35  C   LIG d   1       3.764   7.743   4.371  0.00  0.00     0.352 A 
ATOM     36  O   LIG d   1       2.820   8.521   4.353  0.00  0.00    -0.244 OA
ATOM     37  N   LIG d   1       3.685   6.350   4.542  0.00  0.00    -0.200 N 
ATOM     38  N   LIG d   1       4.951   5.810   4.596  0.00  0.00    -0.144 NA
ATOM     39  C   LIG d   1       5.729   6.828   4.414  0.00  0.00     0.207 A 
BRANCH  37  40
ATOM     40  C   LIG d   1       2.514   5.547   4.899  0.00  0.00     0.137 C 
BRANCH  40  41
ATOM     41  C   LIG d   1       2.356   4.345   3.946  0.00  0.00     0.027 C 
ATOM     42  C   LIG d   1       1.765   4.729   2.595  0.00  0.00     0.002 C 
ENDBRANCH  40  41
BRANCH  40  43
ATOM     43  C   LIG d   1       2.466   5.092   6.387  0.00  0.00     0.133 C 
ATOM     44  C   LIG d   1       1.835   6.115   7.326  0.00  0.00     0.034 C 
BRANCH  43  45
ATOM     45  O   LIG d   1       3.751   4.694   6.866  0.00  0.00    -0.383 OA
ATOM     46  H   LIG d   1       4.235   4.257   6.147  0.00  0.00     0.210 HD
ENDBRANCH  43  45
ENDBRANCH  40  43
ENDBRANCH  37  40
ENDBRANCH  31  34
ENDBRANCH  25  28
ENDBRANCH  19  22
ENDBRANCH  15  16
ENDBRANCH  14  15
ENDBRANCH  12  14
BRANCH   9  47
ATOM     47  C   LIG d   1       6.816  23.754   1.518  0.00  0.00     0.161 C 
BRANCH  47  48
ATOM     48  N   LIG d   1       7.719  24.879   1.398  0.00  0.00    -0.228 N 
ATOM     49  N   LIG d   1       9.055  24.711   1.445  0.00  0.00    -0.145 NA
ATOM     50  C   LIG d   1       9.481  25.967   1.280  0.00  0.00     0.221 A 
ATOM     51  N   LIG d   1       8.498  26.897   1.094  0.00  0.00    -0.201 NA
ATOM     52  C   LIG d   1       7.399  26.181   1.162  0.00  0.00     0.197 A 
ENDBRANCH  47  48
ENDBRANCH   9  47
ENDBRANCH   3   9
TORSDOF 13
ENDMDL
MODEL 6
REMARK VINA RESULT:      -7.3     21.930     25.114
REMARK  13 active torsions:
REMARK  status: ('A' for Active; 'I' for Inactive)
REMARK    1  A    between atoms: O_4  and  C_21 
REMARK    2  A    between atoms: O_4  and  C_27 
REMARK    3  A    between atoms: O_5  and  C_43 
REMARK    4  A    between atoms: N_7  and  C_19 
REMARK    5  A    between atoms: N_9  and  C_33 
REMARK    6  A    between atoms: N_10  and  C_39 
REMARK    7  A    between atoms: N_12  and  C_40 
REMARK    8  A    between atoms: N_13  and  C_44 
REMARK    9  A    between atoms: C_15  and  C_19 
REMARK   10  A    between atoms: C_15  and  C_20 
REMARK   11  A    between atoms: C_17  and  C_21 
REMARK   12  A    between atoms: C_40  and  C_45 
REMARK   13  A    between atoms: C_40  and  C_43 
ROOT
ATOM      1  F   LIG d   1      20.016  -2.567  -5.187  0.00  0.00    -0.204 F 
ATOM      2  F   LIG d   1      21.665   0.453  -1.986  0.00  0.00    -0.204 F 
ATOM      3  C   LIG d   1      18.727  -2.195  -3.227  0.00  0.00     0.032 A 
ATOM      4  C   LIG d   1      19.868  -1.954  -4.005  0.00  0.00     0.141 A 
ATOM      5  C   LIG d   1      18.592  -1.469  -2.025  0.00  0.00     0.003 A 
ATOM      6  C   LIG d   1      20.868  -1.079  -3.588  0.00  0.00     0.059 A 
ATOM      7  C   LIG d   1      19.579  -0.573  -1.611  0.00  0.00     0.030 A 
ATOM      8  C   LIG d   1      20.713  -0.397  -2.391  0.00  0.00     0.142 A 
ENDROOT
BRANCH   3   9
ATOM      9  C   LIG d   1      17.628  -3.154  -3.685  0.00  0.00     0.136 C 
ATOM     10  O   LIG d   1      16.517  -3.048  -2.742  0.00  0.00    -0.353 OA
ATOM     11  C   LIG d   1      16.615  -4.150  -1.826  0.00  0.00     0.145 C 
ATOM     12  C   LIG d   1      16.983  -5.312  -2.719  0.00  0.00     0.063 C 
ATOM     13  C   LIG d   1      18.022  -4.658  -3.622  0.00  0.00     0.039 C 
BRANCH  12  14
ATOM     14  C   LIG d   1      15.724  -5.778  -3.453  0.00  0.00     0.151 C 
BRANCH  14  15
ATOM     15  O   LIG d   1      16.041  -6.609  -4.569  0.00  0.00    -0.331 OA
BRANCH  15  16
ATOM     16  C   LIG d   1      15.653  -6.094  -5.781  0.00  0.00     0.094 A 
ATOM     17  C   LIG d   1      14.394  -5.582  -6.069  0.00  0.00     0.026 A 
ATOM     18  C   LIG d   1      14.090  -5.104  -7.349  0.00  0.00     0.019 A 
ATOM     19  C   LIG d   1      15.014  -5.119  -8.404  0.00  0.00     0.056 A 
ATOM     20  C   LIG d   1      16.296  -5.595  -8.070  0.00  0.00     0.019 A 
ATOM     21  C   LIG d   1      16.611  -6.080  -6.787  0.00  0.00     0.026 A 
BRANCH  19  22
ATOM     22  N   LIG d   1      14.689  -4.626  -9.684  0.00  0.00    -0.345 N 
ATOM     23  C   LIG d   1      15.641  -4.926 -10.788  0.00  0.00     0.119 C 
ATOM     24  C   LIG d   1      15.300  -4.135 -12.070  0.00  0.00     0.101 C 
ATOM     25  N   LIG d   1      13.905  -4.391 -12.496  0.00  0.00    -0.249 NA
ATOM     26  C   LIG d   1      12.954  -4.012 -11.429  0.00  0.00     0.101 C 
ATOM     27  C   LIG d   1      13.266  -4.758 -10.115  0.00  0.00     0.119 C 
BRANCH  25  28
ATOM     28  C   LIG d   1      13.524  -3.841 -13.731  0.00  0.00     0.037 A 
ATOM     29  C   LIG d   1      14.104  -4.196 -14.948  0.00  0.00     0.013 A 
ATOM     30  C   LIG d   1      13.662  -3.636 -16.154  0.00  0.00     0.019 A 
ATOM     31  C   LIG d   1      12.618  -2.705 -16.192  0.00  0.00     0.070 A 
ATOM     32  C   LIG d   1      12.064  -2.315 -14.964  0.00  0.00     0.019 A 
ATOM     33  C   LIG d   1      12.515  -2.872 -13.758  0.00  0.00     0.013 A 
BRANCH  31  34
ATOM     34  N   LIG d   1      12.120  -2.212 -17.422  0.00  0.00    -0.240 N 
ATOM     35  C   LIG d   1      10.935  -2.555 -18.056  0.00  0.00     0.352 A 
ATOM     36  O   LIG d   1      10.117  -3.406 -17.737  0.00  0.00    -0.244 OA
ATOM     37  N   LIG d   1      10.861  -1.717 -19.182  0.00  0.00    -0.200 N 
ATOM     38  N   LIG d   1      11.998  -0.945 -19.271  0.00  0.00    -0.144 NA
ATOM     39  C   LIG d   1      12.679  -1.277 -18.221  0.00  0.00     0.207 A 
BRANCH  37  40
ATOM     40  C   LIG d   1       9.911  -1.779 -20.295  0.00  0.00     0.137 C 
BRANCH  40  41
ATOM     41  C   LIG d   1      10.048  -0.544 -21.208  0.00  0.00     0.027 C 
ATOM     42  C   LIG d   1       8.987   0.516 -20.940  0.00  0.00     0.002 C 
ENDBRANCH  40  41
BRANCH  40  43
ATOM     43  C   LIG d   1       9.965  -3.097 -21.123  0.00  0.00     0.133 C 
ATOM     44  C   LIG d   1       9.753  -2.896 -22.620  0.00  0.00     0.034 C 
BRANCH  43  45
ATOM     45  O   LIG d   1       9.068  -4.084 -20.615  0.00  0.00    -0.383 OA
ATOM     46  H   LIG d   1       8.575  -4.475 -21.355  0.00  0.00     0.210 HD
ENDBRANCH  43  45
ENDBRANCH  40  43
ENDBRANCH  37  40
ENDBRANCH  31  34
ENDBRANCH  25  28
ENDBRANCH  19  22
ENDBRANCH  15  16
ENDBRANCH  14  15
ENDBRANCH  12  14
BRANCH   9  47
ATOM     47  C   LIG d   1      17.131  -2.801  -5.107  0.00  0.00     0.161 C 
BRANCH  47  48
ATOM     48  N   LIG d   1      15.921  -2.007  -5.139  0.00  0.00    -0.228 N 
ATOM     49  N   LIG d   1      15.925  -0.746  -5.610  0.00  0.00    -0.145 NA
ATOM     50  C   LIG d   1      14.637  -0.414  -5.475  0.00  0.00     0.221 A 
ATOM     51  N   LIG d   1      13.828  -1.400  -4.988  0.00  0.00    -0.201 NA
ATOM     52  C   LIG d   1      14.662  -2.396  -4.797  0.00  0.00     0.197 A 
ENDBRANCH  47  48
ENDBRANCH   9  47
ENDBRANCH   3   9
TORSDOF 13
ENDMDL
MODEL 7
REMARK VINA RESULT:      -7.3      3.258      5.603
REMARK  13 active torsions:
REMARK  status: ('A' for Active; 'I' for Inactive)
REMARK    1  A    between atoms: O_4  and  C_21 
REMARK    2  A    between atoms: O_4  and  C_27 
REMARK    3  A    between atoms: O_5  and  C_43 
REMARK    4  A    between atoms: N_7  and  C_19 
REMARK    5  A    between atoms: N_9  and  C_33 
REMARK    6  A    between atoms: N_10  and  C_39 
REMARK    7  A    between atoms: N_12  and  C_40 
REMARK    8  A    between atoms: N_13  and  C_44 
REMARK    9  A    between atoms: C_15  and  C_19 
REMARK   10  A    between atoms: C_15  and  C_20 
REMARK   11  A    between atoms: C_17  and  C_21 
REMARK   12  A    between atoms: C_40  and  C_45 
REMARK   13  A    between atoms: C_40  and  C_43 
ROOT
ATOM      1  F   LIG d   1       6.586  23.199   1.825  0.00  0.00    -0.204 F 
ATOM      2  F   LIG d   1       8.771  26.977   0.083  0.00  0.00    -0.204 F 
ATOM      3  C   LIG d   1       8.375  22.857   0.299  0.00  0.00     0.032 A 
ATOM      4  C   LIG d   1       7.532  23.710   1.024  0.00  0.00     0.141 A 
ATOM      5  C   LIG d   1       9.395  23.450  -0.473  0.00  0.00     0.003 A 
ATOM      6  C   LIG d   1       7.646  25.095   0.945  0.00  0.00     0.059 A 
ATOM      7  C   LIG d   1       9.532  24.838  -0.541  0.00  0.00     0.030 A 
ATOM      8  C   LIG d   1       8.647  25.647   0.160  0.00  0.00     0.142 A 
ENDROOT
BRANCH   3   9
ATOM      9  C   LIG d   1       8.250  21.335   0.388  0.00  0.00     0.136 C 
ATOM     10  O   LIG d   1       7.749  21.001   1.719  0.00  0.00    -0.353 OA
ATOM     11  C   LIG d   1       8.872  20.609   2.522  0.00  0.00     0.145 C 
ATOM     12  C   LIG d   1       9.688  19.752   1.582  0.00  0.00     0.063 C 
ATOM     13  C   LIG d   1       9.605  20.574   0.303  0.00  0.00     0.039 C 
BRANCH  12  14
ATOM     14  C   LIG d   1       9.027  18.376   1.482  0.00  0.00     0.151 C 
BRANCH  14  15
ATOM     15  O   LIG d   1       9.877  17.344   1.981  0.00  0.00    -0.331 OA
BRANCH  15  16
ATOM     16  C   LIG d   1       9.219  16.185   2.310  0.00  0.00     0.094 A 
ATOM     17  C   LIG d   1       9.828  14.968   2.591  0.00  0.00     0.026 A 
ATOM     18  C   LIG d   1       9.062  13.835   2.890  0.00  0.00     0.019 A 
ATOM     19  C   LIG d   1       7.660  13.852   2.915  0.00  0.00     0.056 A 
ATOM     20  C   LIG d   1       7.072  15.108   2.678  0.00  0.00     0.019 A 
ATOM     21  C   LIG d   1       7.832  16.253   2.374  0.00  0.00     0.026 A 
BRANCH  19  22
ATOM     22  N   LIG d   1       6.909  12.700   3.226  0.00  0.00    -0.345 N 
ATOM     23  C   LIG d   1       7.506  11.385   2.865  0.00  0.00     0.119 C 
ATOM     24  C   LIG d   1       6.492  10.231   3.033  0.00  0.00     0.101 C 
ATOM     25  N   LIG d   1       5.947  10.200   4.409  0.00  0.00    -0.249 NA
ATOM     26  C   LIG d   1       5.279  11.478   4.736  0.00  0.00     0.101 C 
ATOM     27  C   LIG d   1       6.243  12.670   4.561  0.00  0.00     0.119 C 
BRANCH  25  28
ATOM     28  C   LIG d   1       5.125   9.106   4.725  0.00  0.00     0.037 A 
ATOM     29  C   LIG d   1       5.453   7.782   4.435  0.00  0.00     0.013 A 
ATOM     30  C   LIG d   1       4.608   6.727   4.801  0.00  0.00     0.019 A 
ATOM     31  C   LIG d   1       3.404   6.952   5.479  0.00  0.00     0.070 A 
ATOM     32  C   LIG d   1       3.054   8.286   5.733  0.00  0.00     0.019 A 
ATOM     33  C   LIG d   1       3.899   9.340   5.357  0.00  0.00     0.013 A 
BRANCH  31  34
ATOM     34  N   LIG d   1       2.601   5.874   5.923  0.00  0.00    -0.240 N 
ATOM     35  C   LIG d   1       1.530   5.287   5.266  0.00  0.00     0.352 A 
ATOM     36  O   LIG d   1       1.003   5.623   4.214  0.00  0.00    -0.244 OA
ATOM     37  N   LIG d   1       1.145   4.205   6.075  0.00  0.00    -0.200 N 
ATOM     38  N   LIG d   1       1.907   4.180   7.223  0.00  0.00    -0.144 NA
ATOM     39  C   LIG d   1       2.731   5.168   7.067  0.00  0.00     0.207 A 
BRANCH  37  40
ATOM     40  C   LIG d   1      -0.042   3.357   5.949  0.00  0.00     0.137 C 
BRANCH  40  41
ATOM     41  C   LIG d   1      -0.692   3.107   7.324  0.00  0.00     0.027 C 
ATOM     42  C   LIG d   1      -0.753   1.630   7.694  0.00  0.00     0.002 C 
ENDBRANCH  40  41
BRANCH  40  43
ATOM     43  C   LIG d   1      -1.092   3.859   4.914  0.00  0.00     0.133 C 
ATOM     44  C   LIG d   1      -2.539   3.632   5.342  0.00  0.00     0.034 C 
BRANCH  43  45
ATOM     45  O   LIG d   1      -0.861   3.321   3.613  0.00  0.00    -0.383 OA
ATOM     46  H   LIG d   1      -0.198   3.865   3.158  0.00  0.00     0.210 HD
ENDBRANCH  43  45
ENDBRANCH  40  43
ENDBRANCH  37  40
ENDBRANCH  31  34
ENDBRANCH  25  28
ENDBRANCH  19  22
ENDBRANCH  15  16
ENDBRANCH  14  15
ENDBRANCH  12  14
BRANCH   9  47
ATOM     47  C   LIG d   1       7.275  20.789  -0.681  0.00  0.00     0.161 C 
BRANCH  47  48
ATOM     48  N   LIG d   1       6.337  21.767  -1.192  0.00  0.00    -0.228 N 
ATOM     49  N   LIG d   1       5.149  21.975  -0.594  0.00  0.00    -0.145 NA
ATOM     50  C   LIG d   1       4.637  22.942  -1.362  0.00  0.00     0.221 A 
ATOM     51  N   LIG d   1       5.447  23.375  -2.373  0.00  0.00    -0.201 NA
ATOM     52  C   LIG d   1       6.516  22.625  -2.234  0.00  0.00     0.197 A 
ENDBRANCH  47  48
ENDBRANCH   9  47
ENDBRANCH   3   9
TORSDOF 13
ENDMDL
MODEL 8
REMARK VINA RESULT:      -7.2     22.043     25.354
REMARK  13 active torsions:
REMARK  status: ('A' for Active; 'I' for Inactive)
REMARK    1  A    between atoms: O_4  and  C_21 
REMARK    2  A    between atoms: O_4  and  C_27 
REMARK    3  A    between atoms: O_5  and  C_43 
REMARK    4  A    between atoms: N_7  and  C_19 
REMARK    5  A    between atoms: N_9  and  C_33 
REMARK    6  A    between atoms: N_10  and  C_39 
REMARK    7  A    between atoms: N_12  and  C_40 
REMARK    8  A    between atoms: N_13  and  C_44 
REMARK    9  A    between atoms: C_15  and  C_19 
REMARK   10  A    between atoms: C_15  and  C_20 
REMARK   11  A    between atoms: C_17  and  C_21 
REMARK   12  A    between atoms: C_40  and  C_45 
REMARK   13  A    between atoms: C_40  and  C_43 
ROOT
ATOM      1  F   LIG d   1      20.903  -3.976  -3.586  0.00  0.00    -0.204 F 
ATOM      2  F   LIG d   1      22.302  -0.316  -0.991  0.00  0.00    -0.204 F 
ATOM      3  C   LIG d   1      19.242  -2.517  -2.717  0.00  0.00     0.032 A 
ATOM      4  C   LIG d   1      20.584  -2.895  -2.860  0.00  0.00     0.141 A 
ATOM      5  C   LIG d   1      18.973  -1.332  -2.000  0.00  0.00     0.003 A 
ATOM      6  C   LIG d   1      21.617  -2.172  -2.270  0.00  0.00     0.059 A 
ATOM      7  C   LIG d   1      20.003  -0.588  -1.424  0.00  0.00     0.030 A 
ATOM      8  C   LIG d   1      21.315  -1.023  -1.555  0.00  0.00     0.142 A 
ENDROOT
BRANCH   3   9
ATOM      9  C   LIG d   1      18.108  -3.310  -3.366  0.00  0.00     0.136 C 
ATOM     10  O   LIG d   1      16.860  -2.932  -2.706  0.00  0.00    -0.353 OA
ATOM     11  C   LIG d   1      16.552  -3.949  -1.741  0.00  0.00     0.145 C 
ATOM     12  C   LIG d   1      16.880  -5.231  -2.470  0.00  0.00     0.063 C 
ATOM     13  C   LIG d   1      18.191  -4.848  -3.144  0.00  0.00     0.039 C 
BRANCH  12  14
ATOM     14  C   LIG d   1      15.744  -5.537  -3.448  0.00  0.00     0.151 C 
BRANCH  14  15
ATOM     15  O   LIG d   1      16.198  -6.307  -4.561  0.00  0.00    -0.331 OA
BRANCH  15  16
ATOM     16  C   LIG d   1      15.703  -5.889  -5.771  0.00  0.00     0.094 A 
ATOM     17  C   LIG d   1      14.382  -5.538  -6.021  0.00  0.00     0.026 A 
ATOM     18  C   LIG d   1      13.973  -5.150  -7.301  0.00  0.00     0.019 A 
ATOM     19  C   LIG d   1      14.849  -5.101  -8.396  0.00  0.00     0.056 A 
ATOM     20  C   LIG d   1      16.190  -5.411  -8.103  0.00  0.00     0.019 A 
ATOM     21  C   LIG d   1      16.612  -5.805  -6.819  0.00  0.00     0.026 A 
BRANCH  19  22
ATOM     22  N   LIG d   1      14.416  -4.700  -9.676  0.00  0.00    -0.345 N 
ATOM     23  C   LIG d   1      15.303  -5.032 -10.825  0.00  0.00     0.119 C 
ATOM     24  C   LIG d   1      14.842  -4.335 -12.125  0.00  0.00     0.101 C 
ATOM     25  N   LIG d   1      13.433  -4.668 -12.435  0.00  0.00    -0.249 NA
ATOM     26  C   LIG d   1      12.543  -4.260 -11.327  0.00  0.00     0.101 C 
ATOM     27  C   LIG d   1      12.974  -4.911  -9.997  0.00  0.00     0.119 C 
BRANCH  25  28
ATOM     28  C   LIG d   1      12.946  -4.210 -13.670  0.00  0.00     0.037 A 
ATOM     29  C   LIG d   1      12.516  -2.903 -13.896  0.00  0.00     0.013 A 
ATOM     30  C   LIG d   1      12.068  -2.494 -15.158  0.00  0.00     0.019 A 
ATOM     31  C   LIG d   1      12.039  -3.372 -16.247  0.00  0.00     0.070 A 
ATOM     32  C   LIG d   1      12.430  -4.698 -16.010  0.00  0.00     0.019 A 
ATOM     33  C   LIG d   1      12.870  -5.106 -14.742  0.00  0.00     0.013 A 
BRANCH  31  34
ATOM     34  N   LIG d   1      11.668  -2.926 -17.539  0.00  0.00    -0.240 N 
ATOM     35  C   LIG d   1      12.398  -2.119 -18.400  0.00  0.00     0.352 A 
ATOM     36  O   LIG d   1      13.466  -1.558 -18.199  0.00  0.00    -0.244 OA
ATOM     37  N   LIG d   1      11.640  -2.057 -19.581  0.00  0.00    -0.200 N 
ATOM     38  N   LIG d   1      10.455  -2.740 -19.418  0.00  0.00    -0.144 NA
ATOM     39  C   LIG d   1      10.539  -3.221 -18.219  0.00  0.00     0.207 A 
BRANCH  37  40
ATOM     40  C   LIG d   1      11.853  -1.199 -20.749  0.00  0.00     0.137 C 
BRANCH  40  41
ATOM     41  C   LIG d   1      11.331  -1.873 -22.033  0.00  0.00     0.027 C 
ATOM     42  C   LIG d   1      10.245  -1.064 -22.732  0.00  0.00     0.002 C 
ENDBRANCH  40  41
BRANCH  40  43
ATOM     43  C   LIG d   1      11.289   0.246 -20.605  0.00  0.00     0.133 C 
ATOM     44  C   LIG d   1      12.365   1.317 -20.453  0.00  0.00     0.034 C 
BRANCH  43  45
ATOM     45  O   LIG d   1      10.329   0.343 -19.554  0.00  0.00    -0.383 OA
ATOM     46  H   LIG d   1       9.461   0.552 -19.936  0.00  0.00     0.210 HD
ENDBRANCH  43  45
ENDBRANCH  40  43
ENDBRANCH  37  40
ENDBRANCH  31  34
ENDBRANCH  25  28
ENDBRANCH  19  22
ENDBRANCH  15  16
ENDBRANCH  14  15
ENDBRANCH  12  14
BRANCH   9  47
ATOM     47  C   LIG d   1      18.003  -3.003  -4.879  0.00  0.00     0.161 C 
BRANCH  47  48
ATOM     48  N   LIG d   1      16.942  -2.083  -5.231  0.00  0.00    -0.228 N 
ATOM     49  N   LIG d   1      17.207  -0.807  -5.571  0.00  0.00    -0.145 NA
ATOM     50  C   LIG d   1      15.980  -0.346  -5.829  0.00  0.00     0.221 A 
ATOM     51  N   LIG d   1      14.975  -1.263  -5.710  0.00  0.00    -0.201 NA
ATOM     52  C   LIG d   1      15.612  -2.351  -5.343  0.00  0.00     0.197 A 
ENDBRANCH  47  48
ENDBRANCH   9  47
ENDBRANCH   3   9
TORSDOF 13
ENDMDL
MODEL 9
REMARK VINA RESULT:      -7.0      8.299     20.567
REMARK  13 active torsions:
REMARK  status: ('A' for Active; 'I' for Inactive)
REMARK    1  A    between atoms: O_4  and  C_21 
REMARK    2  A    between atoms: O_4  and  C_27 
REMARK    3  A    between atoms: O_5  and  C_43 
REMARK    4  A    between atoms: N_7  and  C_19 
REMARK    5  A    between atoms: N_9  and  C_33 
REMARK    6  A    between atoms: N_10  and  C_39 
REMARK    7  A    between atoms: N_12  and  C_40 
REMARK    8  A    between atoms: N_13  and  C_44 
REMARK    9  A    between atoms: C_15  and  C_19 
REMARK   10  A    between atoms: C_15  and  C_20 
REMARK   11  A    between atoms: C_17  and  C_21 
REMARK   12  A    between atoms: C_40  and  C_45 
REMARK   13  A    between atoms: C_40  and  C_43 
ROOT
ATOM      1  F   LIG d   1       7.204  12.225   0.827  0.00  0.00    -0.204 F 
ATOM      2  F   LIG d   1       5.308   8.724   3.324  0.00  0.00    -0.204 F 
ATOM      3  C   LIG d   1       7.461  12.264   3.189  0.00  0.00     0.032 A 
ATOM      4  C   LIG d   1       6.966  11.665   2.022  0.00  0.00     0.141 A 
ATOM      5  C   LIG d   1       7.238  11.593   4.409  0.00  0.00     0.003 A 
ATOM      6  C   LIG d   1       6.228  10.486   2.059  0.00  0.00     0.059 A 
ATOM      7  C   LIG d   1       6.519  10.398   4.454  0.00  0.00     0.030 A 
ATOM      8  C   LIG d   1       6.010   9.863   3.278  0.00  0.00     0.142 A 
ENDROOT
BRANCH   3   9
ATOM      9  C   LIG d   1       8.273  13.559   3.148  0.00  0.00     0.136 C 
ATOM     10  O   LIG d   1       7.503  14.595   3.832  0.00  0.00    -0.353 OA
ATOM     11  C   LIG d   1       6.846  15.384   2.829  0.00  0.00     0.145 C 
ATOM     12  C   LIG d   1       7.907  15.548   1.766  0.00  0.00     0.063 C 
ATOM     13  C   LIG d   1       8.483  14.139   1.719  0.00  0.00     0.039 C 
BRANCH  12  14
ATOM     14  C   LIG d   1       8.901  16.613   2.234  0.00  0.00     0.151 C 
BRANCH  14  15
ATOM     15  O   LIG d   1       9.592  17.209   1.137  0.00  0.00    -0.331 OA
BRANCH  15  16
ATOM     16  C   LIG d   1       9.177  18.483   0.838  0.00  0.00     0.094 A 
ATOM     17  C   LIG d   1       7.894  18.837   0.441  0.00  0.00     0.026 A 
ATOM     18  C   LIG d   1       7.579  20.165   0.132  0.00  0.00     0.019 A 
ATOM     19  C   LIG d   1       8.522  21.202   0.191  0.00  0.00     0.056 A 
ATOM     20  C   LIG d   1       9.799  20.824   0.645  0.00  0.00     0.019 A 
ATOM     21  C   LIG d   1      10.127  19.491   0.956  0.00  0.00     0.026 A 
BRANCH  19  22
ATOM     22  N   LIG d   1       8.182  22.534  -0.119  0.00  0.00    -0.345 N 
ATOM     23  C   LIG d   1       6.777  22.953   0.145  0.00  0.00     0.119 C 
ATOM     24  C   LIG d   1       6.472  24.344  -0.454  0.00  0.00     0.101 C 
ATOM     25  N   LIG d   1       7.426  25.359   0.047  0.00  0.00    -0.249 NA
ATOM     26  C   LIG d   1       8.816  24.983  -0.291  0.00  0.00     0.101 C 
ATOM     27  C   LIG d   1       9.166  23.588   0.266  0.00  0.00     0.119 C 
BRANCH  25  28
ATOM     28  C   LIG d   1       7.160  26.690  -0.315  0.00  0.00     0.037 A 
ATOM     29  C   LIG d   1       5.906  27.287  -0.200  0.00  0.00     0.013 A 
ATOM     30  C   LIG d   1       5.705  28.629  -0.548  0.00  0.00     0.019 A 
ATOM     31  C   LIG d   1       6.754  29.430  -1.017  0.00  0.00     0.070 A 
ATOM     32  C   LIG d   1       8.005  28.818  -1.173  0.00  0.00     0.019 A 
ATOM     33  C   LIG d   1       8.199  27.471  -0.831  0.00  0.00     0.013 A 
BRANCH  31  34
ATOM     34  N   LIG d   1       6.561  30.808  -1.281  0.00  0.00    -0.240 N 
ATOM     35  C   LIG d   1       7.262  31.880  -0.749  0.00  0.00     0.352 A 
ATOM     36  O   LIG d   1       8.128  31.873   0.115  0.00  0.00    -0.244 OA
ATOM     37  N   LIG d   1       6.757  33.016  -1.405  0.00  0.00    -0.200 N 
ATOM     38  N   LIG d   1       5.732  32.654  -2.251  0.00  0.00    -0.144 NA
ATOM     39  C   LIG d   1       5.675  31.366  -2.135  0.00  0.00     0.207 A 
BRANCH  37  40
ATOM     40  C   LIG d   1       7.012  34.425  -1.100  0.00  0.00     0.137 C 
BRANCH  40  41
ATOM     41  C   LIG d   1       6.984  35.282  -2.382  0.00  0.00     0.027 C 
ATOM     42  C   LIG d   1       8.309  35.274  -3.133  0.00  0.00     0.002 C 
ENDBRANCH  40  41
BRANCH  40  43
ATOM     43  C   LIG d   1       6.091  35.030  -0.001  0.00  0.00     0.133 C 
ATOM     44  C   LIG d   1       6.695  34.997   1.400  0.00  0.00     0.034 C 
BRANCH  43  45
ATOM     45  O   LIG d   1       4.793  34.436  -0.003  0.00  0.00    -0.383 OA
ATOM     46  H   LIG d   1       4.287  34.783  -0.756  0.00  0.00     0.210 HD
ENDBRANCH  43  45
ENDBRANCH  40  43
ENDBRANCH  37  40
ENDBRANCH  31  34
ENDBRANCH  25  28
ENDBRANCH  19  22
ENDBRANCH  15  16
ENDBRANCH  14  15
ENDBRANCH  12  14
BRANCH   9  47
ATOM     47  C   LIG d   1       9.640  13.386   3.850  0.00  0.00     0.161 C 
BRANCH  47  48
ATOM     48  N   LIG d   1       9.806  14.186   5.044  0.00  0.00    -0.228 N 
ATOM     49  N   LIG d   1      10.459  15.364   5.012  0.00  0.00    -0.145 NA
ATOM     50  C   LIG d   1      10.358  15.754   6.286  0.00  0.00     0.221 A 
ATOM     51  N   LIG d   1       9.650  14.914   7.098  0.00  0.00    -0.201 NA
ATOM     52  C   LIG d   1       9.305  13.942   6.286  0.00  0.00     0.197 A 
ENDBRANCH  47  48
ENDBRANCH   9  47
ENDBRANCH   3   9
TORSDOF 13
ENDMDL
