MODEL 1
REMARK VINA RESULT:      -6.7      0.000      0.000
REMARK  11 active torsions:
REMARK  status: ('A' for Active; 'I' for Inactive)
REMARK    1  A    between atoms: O_1  and  C_16 
REMARK    2  A    between atoms: O_1  and  C_23 
REMARK    3  A    between atoms: O_2  and  C_20 
REMARK    4  A    between atoms: N_8  and  C_22 
REMARK    5  A    between atoms: N_8  and  C_26 
REMARK    6  A    between atoms: N_9  and  C_24 
REMARK    7  A    between atoms: C_10  and  C_13 
REMARK    8  A    between atoms: C_11  and  C_16 
REMARK    9  A    between atoms: C_12  and  C_20 
REMARK   10  A    between atoms: C_22  and  C_23 
REMARK   11  A    between atoms: C_26  and  C_28 
ROOT
ATOM      1  N   LIG d   1       9.868   2.522  21.824  0.00  0.00    -0.362 N 
ATOM      2  C   LIG d   1       8.839  -0.106  21.966  0.00  0.00     0.101 C 
ATOM      3  C   LIG d   1      10.323   0.223  22.155  0.00  0.00     0.052 C 
ATOM      4  C   LIG d   1       7.956   1.129  21.879  0.00  0.00     0.052 C 
ATOM      5  C   LIG d   1      10.769   1.499  22.084  0.00  0.00     0.018 C 
ATOM      6  C   LIG d   1       8.490   2.366  21.788  0.00  0.00     0.018 C 
ATOM      7  C   LIG d   1      12.195   1.928  22.316  0.00  0.00     0.069 C 
ATOM      8  C   LIG d   1       7.674   3.631  21.690  0.00  0.00     0.069 C 
ATOM      9  H   LIG d   1      10.222   3.478  21.844  0.00  0.00     0.165 HD
ENDROOT
BRANCH   3  10
ATOM     10  C   LIG d   1      11.169  -0.963  22.403  0.00  0.00     0.292 C 
ATOM     11  O   LIG d   1      12.038  -1.356  21.637  0.00  0.00    -0.259 OA
BRANCH  10  12
ATOM     12  O   LIG d   1      11.019  -1.424  23.674  0.00  0.00    -0.316 OA
BRANCH  12  13
ATOM     13  C   LIG d   1      10.389  -2.713  23.760  0.00  0.00     0.206 C 
BRANCH  13  14
ATOM     14  C   LIG d   1       9.565  -2.801  25.052  0.00  0.00     0.261 C 
BRANCH  14  15
ATOM     15  N   LIG d   1       8.600  -1.647  25.229  0.00  0.00    -0.069 N 
ATOM     16  C   LIG d   1       7.160  -2.103  25.247  0.00  0.00     0.270 C 
ATOM     17  H   LIG d   1       8.705  -0.999  24.440  0.00  0.00     0.279 HD
BRANCH  15  18
ATOM     18  C   LIG d   1       8.958  -0.859  26.479  0.00  0.00     0.273 C 
BRANCH  18  19
ATOM     19  C   LIG d   1       8.652   0.611  26.399  0.00  0.00    -0.033 A 
ATOM     20  C   LIG d   1       7.813   1.205  27.355  0.00  0.00     0.009 A 
ATOM     21  C   LIG d   1       7.534   2.570  27.301  0.00  0.00     0.001 A 
ATOM     22  C   LIG d   1       8.085   3.356  26.292  0.00  0.00     0.000 A 
ATOM     23  C   LIG d   1       8.924   2.779  25.340  0.00  0.00     0.001 A 
ATOM     24  C   LIG d   1       9.211   1.414  25.393  0.00  0.00     0.009 A 
ENDBRANCH  18  19
ENDBRANCH  15  18
ENDBRANCH  14  15
ENDBRANCH  13  14
ENDBRANCH  12  13
ENDBRANCH  10  12
ENDBRANCH   3  10
BRANCH   2  25
ATOM     25  C   LIG d   1       8.633  -1.002  20.733  0.00  0.00    -0.042 A 
ATOM     26  C   LIG d   1       8.200  -2.328  20.893  0.00  0.00     0.044 A 
ATOM     27  C   LIG d   1       7.990  -3.131  19.765  0.00  0.00     0.103 A 
ATOM     28  C   LIG d   1       8.209  -2.638  18.473  0.00  0.00     0.036 A 
ATOM     29  C   LIG d   1       8.632  -1.319  18.311  0.00  0.00     0.003 A 
ATOM     30  C   LIG d   1       8.837  -0.507  19.430  0.00  0.00     0.008 A 
BRANCH  27  31
ATOM     31  N   LIG d   1       7.567  -4.520  19.938  0.00  0.00    -0.116 N 
ATOM     32  O   LIG d   1       7.603  -4.993  21.082  0.00  0.00    -0.532 OA
ATOM     33  O   LIG d   1       7.254  -5.147  18.915  0.00  0.00    -0.532 OA
ENDBRANCH  27  31
ENDBRANCH   2  25
BRANCH   4  34
ATOM     34  C   LIG d   1       6.491   0.913  21.877  0.00  0.00     0.291 C 
ATOM     35  O   LIG d   1       5.768   1.063  20.905  0.00  0.00    -0.260 OA
BRANCH  34  36
ATOM     36  O   LIG d   1       6.096   0.532  23.118  0.00  0.00    -0.323 OA
ATOM     37  C   LIG d   1       5.587   1.597  23.922  0.00  0.00     0.213 C 
ENDBRANCH  34  36
ENDBRANCH   4  34
TORSDOF 11
ENDMDL
MODEL 2
REMARK VINA RESULT:      -6.6      2.459      5.882
REMARK  11 active torsions:
REMARK  status: ('A' for Active; 'I' for Inactive)
REMARK    1  A    between atoms: O_1  and  C_16 
REMARK    2  A    between atoms: O_1  and  C_23 
REMARK    3  A    between atoms: O_2  and  C_20 
REMARK    4  A    between atoms: N_8  and  C_22 
REMARK    5  A    between atoms: N_8  and  C_26 
REMARK    6  A    between atoms: N_9  and  C_24 
REMARK    7  A    between atoms: C_10  and  C_13 
REMARK    8  A    between atoms: C_11  and  C_16 
REMARK    9  A    between atoms: C_12  and  C_20 
REMARK   10  A    between atoms: C_22  and  C_23 
REMARK   11  A    between atoms: C_26  and  C_28 
ROOT
ATOM      1  N   LIG d   1       8.335  -3.381  20.860  0.00  0.00    -0.362 N 
ATOM      2  C   LIG d   1       8.704  -1.437  22.878  0.00  0.00     0.101 C 
ATOM      3  C   LIG d   1       8.513  -1.083  21.400  0.00  0.00     0.052 C 
ATOM      4  C   LIG d   1       8.492  -2.913  23.175  0.00  0.00     0.052 C 
ATOM      5  C   LIG d   1       8.334  -2.049  20.469  0.00  0.00     0.018 C 
ATOM      6  C   LIG d   1       8.345  -3.813  22.179  0.00  0.00     0.018 C 
ATOM      7  C   LIG d   1       8.079  -1.799  19.005  0.00  0.00     0.069 C 
ATOM      8  C   LIG d   1       8.141  -5.291  22.401  0.00  0.00     0.069 C 
ATOM      9  H   LIG d   1       8.130  -4.081  20.148  0.00  0.00     0.165 HD
ENDROOT
BRANCH   3  10
ATOM     10  C   LIG d   1       8.556   0.368  21.124  0.00  0.00     0.292 C 
ATOM     11  O   LIG d   1       9.477   0.929  20.548  0.00  0.00    -0.259 OA
BRANCH  10  12
ATOM     12  O   LIG d   1       7.358   0.959  21.386  0.00  0.00    -0.316 OA
BRANCH  12  13
ATOM     13  C   LIG d   1       7.416   1.980  22.395  0.00  0.00     0.206 C 
BRANCH  13  14
ATOM     14  C   LIG d   1       7.277   3.362  21.742  0.00  0.00     0.261 C 
BRANCH  14  15
ATOM     15  N   LIG d   1       7.825   4.488  22.595  0.00  0.00    -0.069 N 
ATOM     16  C   LIG d   1       6.729   5.340  23.191  0.00  0.00     0.270 C 
ATOM     17  H   LIG d   1       8.404   5.101  22.009  0.00  0.00     0.279 HD
BRANCH  15  18
ATOM     18  C   LIG d   1       8.747   3.926  23.665  0.00  0.00     0.273 C 
BRANCH  18  19
ATOM     19  C   LIG d   1      10.213   4.113  23.387  0.00  0.00    -0.033 A 
ATOM     20  C   LIG d   1      10.805   5.373  23.571  0.00  0.00     0.009 A 
ATOM     21  C   LIG d   1      12.167   5.556  23.332  0.00  0.00     0.001 A 
ATOM     22  C   LIG d   1      12.950   4.487  22.904  0.00  0.00     0.000 A 
ATOM     23  C   LIG d   1      12.375   3.230  22.722  0.00  0.00     0.001 A 
ATOM     24  C   LIG d   1      11.014   3.041  22.966  0.00  0.00     0.009 A 
ENDBRANCH  18  19
ENDBRANCH  15  18
ENDBRANCH  14  15
ENDBRANCH  13  14
ENDBRANCH  12  13
ENDBRANCH  10  12
ENDBRANCH   3  10
BRANCH   2  25
ATOM     25  C   LIG d   1      10.087  -0.982  23.373  0.00  0.00    -0.042 A 
ATOM     26  C   LIG d   1      11.238  -1.307  22.636  0.00  0.00     0.044 A 
ATOM     27  C   LIG d   1      12.493  -0.869  23.079  0.00  0.00     0.103 A 
ATOM     28  C   LIG d   1      12.624  -0.114  24.251  0.00  0.00     0.036 A 
ATOM     29  C   LIG d   1      11.483   0.216  24.980  0.00  0.00     0.003 A 
ATOM     30  C   LIG d   1      10.226  -0.210  24.542  0.00  0.00     0.008 A 
BRANCH  27  31
ATOM     31  N   LIG d   1      13.691  -1.235  22.325  0.00  0.00    -0.116 N 
ATOM     32  O   LIG d   1      14.567  -1.880  22.915  0.00  0.00    -0.532 OA
ATOM     33  O   LIG d   1      13.771  -0.823  21.158  0.00  0.00    -0.532 OA
ENDBRANCH  27  31
ENDBRANCH   2  25
BRANCH   4  34
ATOM     34  C   LIG d   1       8.477  -3.321  24.599  0.00  0.00     0.291 C 
ATOM     35  O   LIG d   1       9.453  -3.707  25.220  0.00  0.00    -0.260 OA
BRANCH  34  36
ATOM     36  O   LIG d   1       7.215  -3.197  25.083  0.00  0.00    -0.323 OA
ATOM     37  C   LIG d   1       7.148  -3.019  26.498  0.00  0.00     0.213 C 
ENDBRANCH  34  36
ENDBRANCH   4  34
TORSDOF 11
ENDMDL
MODEL 3
REMARK VINA RESULT:      -6.3     28.802     33.328
REMARK  11 active torsions:
REMARK  status: ('A' for Active; 'I' for Inactive)
REMARK    1  A    between atoms: O_1  and  C_16 
REMARK    2  A    between atoms: O_1  and  C_23 
REMARK    3  A    between atoms: O_2  and  C_20 
REMARK    4  A    between atoms: N_8  and  C_22 
REMARK    5  A    between atoms: N_8  and  C_26 
REMARK    6  A    between atoms: N_9  and  C_24 
REMARK    7  A    between atoms: C_10  and  C_13 
REMARK    8  A    between atoms: C_11  and  C_16 
REMARK    9  A    between atoms: C_12  and  C_20 
REMARK   10  A    between atoms: C_22  and  C_23 
REMARK   11  A    between atoms: C_26  and  C_28 
ROOT
ATOM      1  N   LIG d   1      16.015  -5.685  -8.903  0.00  0.00    -0.362 N 
ATOM      2  C   LIG d   1      14.578  -4.067  -7.085  0.00  0.00     0.101 C 
ATOM      3  C   LIG d   1      14.147  -4.278  -8.539  0.00  0.00     0.052 C 
ATOM      4  C   LIG d   1      15.741  -4.954  -6.668  0.00  0.00     0.052 C 
ATOM      5  C   LIG d   1      14.864  -5.067  -9.373  0.00  0.00     0.018 C 
ATOM      6  C   LIG d   1      16.417  -5.693  -7.575  0.00  0.00     0.018 C 
ATOM      7  C   LIG d   1      14.489  -5.382 -10.797  0.00  0.00     0.069 C 
ATOM      8  C   LIG d   1      17.584  -6.586  -7.233  0.00  0.00     0.069 C 
ATOM      9  H   LIG d   1      16.495  -6.326  -9.533  0.00  0.00     0.165 HD
ENDROOT
BRANCH   3  10
ATOM     10  C   LIG d   1      12.919  -3.543  -8.909  0.00  0.00     0.292 C 
ATOM     11  O   LIG d   1      11.794  -3.868  -8.554  0.00  0.00    -0.259 OA
BRANCH  10  12
ATOM     12  O   LIG d   1      13.210  -2.350  -9.495  0.00  0.00    -0.316 OA
BRANCH  12  13
ATOM     13  C   LIG d   1      12.650  -2.190 -10.809  0.00  0.00     0.206 C 
BRANCH  13  14
ATOM     14  C   LIG d   1      13.719  -1.642 -11.764  0.00  0.00     0.261 C 
BRANCH  14  15
ATOM     15  N   LIG d   1      13.626  -2.216 -13.163  0.00  0.00    -0.069 N 
ATOM     16  C   LIG d   1      12.633  -3.351 -13.251  0.00  0.00     0.270 C 
ATOM     17  H   LIG d   1      14.543  -2.590 -13.433  0.00  0.00     0.279 HD
BRANCH  15  18
ATOM     18  C   LIG d   1      13.307  -1.110 -14.156  0.00  0.00     0.273 C 
BRANCH  18  19
ATOM     19  C   LIG d   1      14.496  -0.297 -14.588  0.00  0.00    -0.033 A 
ATOM     20  C   LIG d   1      14.429   1.105 -14.572  0.00  0.00     0.009 A 
ATOM     21  C   LIG d   1      15.531   1.870 -14.955  0.00  0.00     0.001 A 
ATOM     22  C   LIG d   1      16.708   1.245 -15.360  0.00  0.00     0.000 A 
ATOM     23  C   LIG d   1      16.788  -0.146 -15.375  0.00  0.00     0.001 A 
ATOM     24  C   LIG d   1      15.691  -0.916 -14.987  0.00  0.00     0.009 A 
ENDBRANCH  18  19
ENDBRANCH  15  18
ENDBRANCH  14  15
ENDBRANCH  13  14
ENDBRANCH  12  13
ENDBRANCH  10  12
ENDBRANCH   3  10
BRANCH   2  25
ATOM     25  C   LIG d   1      14.909  -2.589  -6.823  0.00  0.00    -0.042 A 
ATOM     26  C   LIG d   1      14.157  -1.855  -5.891  0.00  0.00     0.044 A 
ATOM     27  C   LIG d   1      14.480  -0.515  -5.639  0.00  0.00     0.103 A 
ATOM     28  C   LIG d   1      15.540   0.113  -6.305  0.00  0.00     0.036 A 
ATOM     29  C   LIG d   1      16.292  -0.615  -7.225  0.00  0.00     0.003 A 
ATOM     30  C   LIG d   1      15.983  -1.955  -7.478  0.00  0.00     0.008 A 
BRANCH  27  31
ATOM     31  N   LIG d   1      13.676   0.252  -4.689  0.00  0.00    -0.116 N 
ATOM     32  O   LIG d   1      14.244   1.141  -4.041  0.00  0.00    -0.532 OA
ATOM     33  O   LIG d   1      12.488  -0.079  -4.559  0.00  0.00    -0.532 OA
ENDBRANCH  27  31
ENDBRANCH   2  25
BRANCH   4  34
ATOM     34  C   LIG d   1      16.112  -4.955  -5.235  0.00  0.00     0.291 C 
ATOM     35  O   LIG d   1      15.548  -5.608  -4.372  0.00  0.00    -0.260 OA
BRANCH  34  36
ATOM     36  O   LIG d   1      17.163  -4.117  -5.048  0.00  0.00    -0.323 OA
ATOM     37  C   LIG d   1      18.101  -4.567  -4.069  0.00  0.00     0.213 C 
ENDBRANCH  34  36
ENDBRANCH   4  34
TORSDOF 11
ENDMDL
MODEL 4
REMARK VINA RESULT:      -6.2      1.972      3.521
REMARK  11 active torsions:
REMARK  status: ('A' for Active; 'I' for Inactive)
REMARK    1  A    between atoms: O_1  and  C_16 
REMARK    2  A    between atoms: O_1  and  C_23 
REMARK    3  A    between atoms: O_2  and  C_20 
REMARK    4  A    between atoms: N_8  and  C_22 
REMARK    5  A    between atoms: N_8  and  C_26 
REMARK    6  A    between atoms: N_9  and  C_24 
REMARK    7  A    between atoms: C_10  and  C_13 
REMARK    8  A    between atoms: C_11  and  C_16 
REMARK    9  A    between atoms: C_12  and  C_20 
REMARK   10  A    between atoms: C_22  and  C_23 
REMARK   11  A    between atoms: C_26  and  C_28 
ROOT
ATOM      1  N   LIG d   1       9.743   2.519  21.844  0.00  0.00    -0.362 N 
ATOM      2  C   LIG d   1       8.654  -0.087  21.934  0.00  0.00     0.101 C 
ATOM      3  C   LIG d   1      10.127   0.214  22.220  0.00  0.00     0.052 C 
ATOM      4  C   LIG d   1       7.803   1.164  21.781  0.00  0.00     0.052 C 
ATOM      5  C   LIG d   1      10.603   1.480  22.171  0.00  0.00     0.018 C 
ATOM      6  C   LIG d   1       8.367   2.390  21.717  0.00  0.00     0.018 C 
ATOM      7  C   LIG d   1      12.019   1.883  22.495  0.00  0.00     0.069 C 
ATOM      8  C   LIG d   1       7.585   3.670  21.556  0.00  0.00     0.069 C 
ATOM      9  H   LIG d   1      10.114   3.467  21.882  0.00  0.00     0.165 HD
ENDROOT
BRANCH   3  10
ATOM     10  C   LIG d   1      10.931  -0.987  22.531  0.00  0.00     0.292 C 
ATOM     11  O   LIG d   1      11.777  -1.457  21.783  0.00  0.00    -0.259 OA
BRANCH  10  12
ATOM     12  O   LIG d   1      10.777  -1.365  23.829  0.00  0.00    -0.316 OA
BRANCH  12  13
ATOM     13  C   LIG d   1      10.256  -2.694  23.995  0.00  0.00     0.206 C 
BRANCH  13  14
ATOM     14  C   LIG d   1       8.757  -2.626  24.318  0.00  0.00     0.261 C 
BRANCH  14  15
ATOM     15  N   LIG d   1       8.014  -3.906  23.994  0.00  0.00    -0.069 N 
ATOM     16  C   LIG d   1       8.901  -5.124  24.096  0.00  0.00     0.270 C 
ATOM     17  H   LIG d   1       7.670  -3.858  23.028  0.00  0.00     0.279 HD
BRANCH  15  18
ATOM     18  C   LIG d   1       6.784  -4.028  24.879  0.00  0.00     0.273 C 
BRANCH  18  19
ATOM     19  C   LIG d   1       7.005  -4.799  26.151  0.00  0.00    -0.033 A 
ATOM     20  C   LIG d   1       7.863  -4.291  27.139  0.00  0.00     0.009 A 
ATOM     21  C   LIG d   1       8.064  -4.989  28.329  0.00  0.00     0.001 A 
ATOM     22  C   LIG d   1       7.413  -6.201  28.546  0.00  0.00     0.000 A 
ATOM     23  C   LIG d   1       6.554  -6.714  27.576  0.00  0.00     0.001 A 
ATOM     24  C   LIG d   1       6.345  -6.016  26.385  0.00  0.00     0.009 A 
ENDBRANCH  18  19
ENDBRANCH  15  18
ENDBRANCH  14  15
ENDBRANCH  13  14
ENDBRANCH  12  13
ENDBRANCH  10  12
ENDBRANCH   3  10
BRANCH   2  25
ATOM     25  C   LIG d   1       8.512  -0.988  20.695  0.00  0.00    -0.042 A 
ATOM     26  C   LIG d   1       8.069  -2.313  20.838  0.00  0.00     0.044 A 
ATOM     27  C   LIG d   1       7.918  -3.121  19.704  0.00  0.00     0.103 A 
ATOM     28  C   LIG d   1       8.207  -2.634  18.423  0.00  0.00     0.036 A 
ATOM     29  C   LIG d   1       8.640  -1.317  18.278  0.00  0.00     0.003 A 
ATOM     30  C   LIG d   1       8.787  -0.500  19.403  0.00  0.00     0.008 A 
BRANCH  27  31
ATOM     31  N   LIG d   1       7.485  -4.509  19.861  0.00  0.00    -0.116 N 
ATOM     32  O   LIG d   1       7.318  -5.179  18.833  0.00  0.00    -0.532 OA
ATOM     33  O   LIG d   1       7.260  -4.903  21.015  0.00  0.00    -0.532 OA
ENDBRANCH  27  31
ENDBRANCH   2  25
BRANCH   4  34
ATOM     34  C   LIG d   1       6.337   0.977  21.682  0.00  0.00     0.291 C 
ATOM     35  O   LIG d   1       5.713   0.925  20.635  0.00  0.00    -0.260 OA
BRANCH  34  36
ATOM     36  O   LIG d   1       5.817   0.880  22.931  0.00  0.00    -0.323 OA
ATOM     37  C   LIG d   1       4.663   1.695  23.148  0.00  0.00     0.213 C 
ENDBRANCH  34  36
ENDBRANCH   4  34
TORSDOF 11
ENDMDL
MODEL 5
REMARK VINA RESULT:      -6.2      2.576      5.573
REMARK  11 active torsions:
REMARK  status: ('A' for Active; 'I' for Inactive)
REMARK    1  A    between atoms: O_1  and  C_16 
REMARK    2  A    between atoms: O_1  and  C_23 
REMARK    3  A    between atoms: O_2  and  C_20 
REMARK    4  A    between atoms: N_8  and  C_22 
REMARK    5  A    between atoms: N_8  and  C_26 
REMARK    6  A    between atoms: N_9  and  C_24 
REMARK    7  A    between atoms: C_10  and  C_13 
REMARK    8  A    between atoms: C_11  and  C_16 
REMARK    9  A    between atoms: C_12  and  C_20 
REMARK   10  A    between atoms: C_22  and  C_23 
REMARK   11  A    between atoms: C_26  and  C_28 
ROOT
ATOM      1  N   LIG d   1       5.849   1.382  22.055  0.00  0.00    -0.362 N 
ATOM      2  C   LIG d   1       8.154  -0.243  22.236  0.00  0.00     0.101 C 
ATOM      3  C   LIG d   1       7.367   0.232  23.460  0.00  0.00     0.052 C 
ATOM      4  C   LIG d   1       7.472   0.088  20.918  0.00  0.00     0.052 C 
ATOM      5  C   LIG d   1       6.265   1.005  23.325  0.00  0.00     0.018 C 
ATOM      6  C   LIG d   1       6.386   0.890  20.874  0.00  0.00     0.018 C 
ATOM      7  C   LIG d   1       5.393   1.471  24.462  0.00  0.00     0.069 C 
ATOM      8  C   LIG d   1       5.667   1.267  19.602  0.00  0.00     0.069 C 
ATOM      9  H   LIG d   1       4.978   1.906  21.981  0.00  0.00     0.165 HD
ENDROOT
BRANCH   3  10
ATOM     10  C   LIG d   1       7.935  -0.224  24.747  0.00  0.00     0.292 C 
ATOM     11  O   LIG d   1       8.114   0.505  25.713  0.00  0.00    -0.259 OA
BRANCH  10  12
ATOM     12  O   LIG d   1       8.021  -1.581  24.799  0.00  0.00    -0.316 OA
BRANCH  12  13
ATOM     13  C   LIG d   1       9.198  -2.069  25.462  0.00  0.00     0.206 C 
BRANCH  13  14
ATOM     14  C   LIG d   1       8.796  -2.859  26.715  0.00  0.00     0.261 C 
BRANCH  14  15
ATOM     15  N   LIG d   1       8.682  -4.351  26.474  0.00  0.00    -0.069 N 
ATOM     16  C   LIG d   1       9.101  -5.159  27.679  0.00  0.00     0.270 C 
ATOM     17  H   LIG d   1       9.302  -4.613  25.699  0.00  0.00     0.279 HD
BRANCH  15  18
ATOM     18  C   LIG d   1       7.271  -4.697  26.026  0.00  0.00     0.273 C 
BRANCH  18  19
ATOM     19  C   LIG d   1       7.159  -5.119  24.587  0.00  0.00    -0.033 A 
ATOM     20  C   LIG d   1       8.302  -5.142  23.773  0.00  0.00     0.009 A 
ATOM     21  C   LIG d   1       8.214  -5.547  22.441  0.00  0.00     0.001 A 
ATOM     22  C   LIG d   1       6.985  -5.929  21.908  0.00  0.00     0.000 A 
ATOM     23  C   LIG d   1       5.844  -5.915  22.707  0.00  0.00     0.001 A 
ATOM     24  C   LIG d   1       5.928  -5.516  24.042  0.00  0.00     0.009 A 
ENDBRANCH  18  19
ENDBRANCH  15  18
ENDBRANCH  14  15
ENDBRANCH  13  14
ENDBRANCH  12  13
ENDBRANCH  10  12
ENDBRANCH   3  10
BRANCH   2  25
ATOM     25  C   LIG d   1       9.586   0.318  22.256  0.00  0.00    -0.042 A 
ATOM     26  C   LIG d   1      10.683  -0.555  22.181  0.00  0.00     0.044 A 
ATOM     27  C   LIG d   1      11.985  -0.035  22.175  0.00  0.00     0.103 A 
ATOM     28  C   LIG d   1      12.215   1.344  22.248  0.00  0.00     0.036 A 
ATOM     29  C   LIG d   1      11.127   2.213  22.315  0.00  0.00     0.003 A 
ATOM     30  C   LIG d   1       9.825   1.705  22.315  0.00  0.00     0.008 A 
BRANCH  27  31
ATOM     31  N   LIG d   1      13.124  -0.950  22.127  0.00  0.00    -0.116 N 
ATOM     32  O   LIG d   1      13.981  -0.755  21.255  0.00  0.00    -0.532 OA
ATOM     33  O   LIG d   1      13.125  -1.895  22.930  0.00  0.00    -0.532 OA
ENDBRANCH  27  31
ENDBRANCH   2  25
BRANCH   4  34
ATOM     34  C   LIG d   1       8.063  -0.487  19.687  0.00  0.00     0.291 C 
ATOM     35  O   LIG d   1       8.704   0.146  18.864  0.00  0.00    -0.260 OA
BRANCH  34  36
ATOM     36  O   LIG d   1       7.773  -1.811  19.632  0.00  0.00    -0.323 OA
ATOM     37  C   LIG d   1       7.589  -2.314  18.308  0.00  0.00     0.213 C 
ENDBRANCH  34  36
ENDBRANCH   4  34
TORSDOF 11
ENDMDL
MODEL 6
REMARK VINA RESULT:      -6.1      3.011      5.940
REMARK  11 active torsions:
REMARK  status: ('A' for Active; 'I' for Inactive)
REMARK    1  A    between atoms: O_1  and  C_16 
REMARK    2  A    between atoms: O_1  and  C_23 
REMARK    3  A    between atoms: O_2  and  C_20 
REMARK    4  A    between atoms: N_8  and  C_22 
REMARK    5  A    between atoms: N_8  and  C_26 
REMARK    6  A    between atoms: N_9  and  C_24 
REMARK    7  A    between atoms: C_10  and  C_13 
REMARK    8  A    between atoms: C_11  and  C_16 
REMARK    9  A    between atoms: C_12  and  C_20 
REMARK   10  A    between atoms: C_22  and  C_23 
REMARK   11  A    between atoms: C_26  and  C_28 
ROOT
ATOM      1  N   LIG d   1       5.798   1.335  20.612  0.00  0.00    -0.362 N 
ATOM      2  C   LIG d   1       7.983  -0.209  21.521  0.00  0.00     0.101 C 
ATOM      3  C   LIG d   1       6.966   0.440  22.464  0.00  0.00     0.052 C 
ATOM      4  C   LIG d   1       7.598  -0.097  20.054  0.00  0.00     0.052 C 
ATOM      5  C   LIG d   1       5.931   1.166  21.983  0.00  0.00     0.018 C 
ATOM      6  C   LIG d   1       6.561   0.673  19.660  0.00  0.00     0.018 C 
ATOM      7  C   LIG d   1       4.850   1.791  22.825  0.00  0.00     0.069 C 
ATOM      8  C   LIG d   1       6.131   0.837  18.223  0.00  0.00     0.069 C 
ATOM      9  H   LIG d   1       4.972   1.828  20.276  0.00  0.00     0.165 HD
ENDROOT
BRANCH   3  10
ATOM     10  C   LIG d   1       7.244   0.197  23.896  0.00  0.00     0.292 C 
ATOM     11  O   LIG d   1       7.566   1.071  24.688  0.00  0.00    -0.259 OA
BRANCH  10  12
ATOM     12  O   LIG d   1       6.881  -1.061  24.266  0.00  0.00    -0.316 OA
BRANCH  12  13
ATOM     13  C   LIG d   1       7.929  -1.811  24.902  0.00  0.00     0.206 C 
BRANCH  13  14
ATOM     14  C   LIG d   1       7.481  -3.266  25.095  0.00  0.00     0.261 C 
BRANCH  14  15
ATOM     15  N   LIG d   1       7.174  -3.978  23.794  0.00  0.00    -0.069 N 
ATOM     16  C   LIG d   1       8.338  -3.936  22.831  0.00  0.00     0.270 C 
ATOM     17  H   LIG d   1       6.382  -3.512  23.336  0.00  0.00     0.279 HD
BRANCH  15  18
ATOM     18  C   LIG d   1       6.727  -5.403  24.076  0.00  0.00     0.273 C 
BRANCH  18  19
ATOM     19  C   LIG d   1       5.235  -5.593  24.112  0.00  0.00    -0.033 A 
ATOM     20  C   LIG d   1       4.532  -5.849  22.925  0.00  0.00     0.009 A 
ATOM     21  C   LIG d   1       3.152  -6.042  22.947  0.00  0.00     0.001 A 
ATOM     22  C   LIG d   1       2.458  -5.980  24.153  0.00  0.00     0.000 A 
ATOM     23  C   LIG d   1       3.145  -5.732  25.340  0.00  0.00     0.001 A 
ATOM     24  C   LIG d   1       4.528  -5.543  25.324  0.00  0.00     0.009 A 
ENDBRANCH  18  19
ENDBRANCH  15  18
ENDBRANCH  14  15
ENDBRANCH  13  14
ENDBRANCH  12  13
ENDBRANCH  10  12
ENDBRANCH   3  10
BRANCH   2  25
ATOM     25  C   LIG d   1       9.389   0.369  21.753  0.00  0.00    -0.042 A 
ATOM     26  C   LIG d   1      10.490  -0.493  21.881  0.00  0.00     0.044 A 
ATOM     27  C   LIG d   1      11.772   0.041  22.068  0.00  0.00     0.103 A 
ATOM     28  C   LIG d   1      11.978   1.424  22.136  0.00  0.00     0.036 A 
ATOM     29  C   LIG d   1      10.888   2.282  22.002  0.00  0.00     0.003 A 
ATOM     30  C   LIG d   1       9.606   1.760  21.808  0.00  0.00     0.008 A 
BRANCH  27  31
ATOM     31  N   LIG d   1      12.911  -0.862  22.230  0.00  0.00    -0.116 N 
ATOM     32  O   LIG d   1      12.686  -1.999  22.663  0.00  0.00    -0.532 OA
ATOM     33  O   LIG d   1      14.035  -0.404  21.973  0.00  0.00    -0.532 OA
ENDBRANCH  27  31
ENDBRANCH   2  25
BRANCH   4  34
ATOM     34  C   LIG d   1       8.423  -0.847  19.079  0.00  0.00     0.291 C 
ATOM     35  O   LIG d   1       9.025  -0.343  18.145  0.00  0.00    -0.260 OA
BRANCH  34  36
ATOM     36  O   LIG d   1       8.392  -2.167  19.394  0.00  0.00    -0.323 OA
ATOM     37  C   LIG d   1       7.357  -2.900  18.737  0.00  0.00     0.213 C 
ENDBRANCH  34  36
ENDBRANCH   4  34
TORSDOF 11
ENDMDL
MODEL 7
REMARK VINA RESULT:      -6.0     27.925     30.732
REMARK  11 active torsions:
REMARK  status: ('A' for Active; 'I' for Inactive)
REMARK    1  A    between atoms: O_1  and  C_16 
REMARK    2  A    between atoms: O_1  and  C_23 
REMARK    3  A    between atoms: O_2  and  C_20 
REMARK    4  A    between atoms: N_8  and  C_22 
REMARK    5  A    between atoms: N_8  and  C_26 
REMARK    6  A    between atoms: N_9  and  C_24 
REMARK    7  A    between atoms: C_10  and  C_13 
REMARK    8  A    between atoms: C_11  and  C_16 
REMARK    9  A    between atoms: C_12  and  C_20 
REMARK   10  A    between atoms: C_22  and  C_23 
REMARK   11  A    between atoms: C_26  and  C_28 
ROOT
ATOM      1  N   LIG d   1      15.361  -2.572  -4.196  0.00  0.00    -0.362 N 
ATOM      2  C   LIG d   1      16.730  -1.963  -6.592  0.00  0.00     0.101 C 
ATOM      3  C   LIG d   1      15.977  -0.915  -5.769  0.00  0.00     0.052 C 
ATOM      4  C   LIG d   1      16.824  -3.315  -5.901  0.00  0.00     0.052 C 
ATOM      5  C   LIG d   1      15.340  -1.252  -4.623  0.00  0.00     0.018 C 
ATOM      6  C   LIG d   1      16.132  -3.572  -4.770  0.00  0.00     0.018 C 
ATOM      7  C   LIG d   1      14.625  -0.283  -3.717  0.00  0.00     0.069 C 
ATOM      8  C   LIG d   1      16.171  -4.892  -4.040  0.00  0.00     0.069 C 
ATOM      9  H   LIG d   1      14.931  -2.783  -3.296  0.00  0.00     0.165 HD
ENDROOT
BRANCH   3  10
ATOM     10  C   LIG d   1      16.019   0.443  -6.352  0.00  0.00     0.292 C 
ATOM     11  O   LIG d   1      15.025   1.101  -6.626  0.00  0.00    -0.259 OA
BRANCH  10  12
ATOM     12  O   LIG d   1      17.281   0.952  -6.337  0.00  0.00    -0.316 OA
BRANCH  12  13
ATOM     13  C   LIG d   1      17.351   2.334  -5.951  0.00  0.00     0.206 C 
BRANCH  13  14
ATOM     14  C   LIG d   1      18.665   2.946  -6.456  0.00  0.00     0.261 C 
BRANCH  14  15
ATOM     15  N   LIG d   1      19.415   3.720  -5.392  0.00  0.00    -0.069 N 
ATOM     16  C   LIG d   1      20.601   2.953  -4.856  0.00  0.00     0.270 C 
ATOM     17  H   LIG d   1      18.785   3.900  -4.602  0.00  0.00     0.279 HD
BRANCH  15  18
ATOM     18  C   LIG d   1      19.822   5.082  -5.932  0.00  0.00     0.273 C 
BRANCH  18  19
ATOM     19  C   LIG d   1      19.650   6.216  -4.958  0.00  0.00    -0.033 A 
ATOM     20  C   LIG d   1      18.367   6.561  -4.504  0.00  0.00     0.009 A 
ATOM     21  C   LIG d   1      18.196   7.599  -3.589  0.00  0.00     0.001 A 
ATOM     22  C   LIG d   1      19.301   8.306  -3.121  0.00  0.00     0.000 A 
ATOM     23  C   LIG d   1      20.580   7.970  -3.560  0.00  0.00     0.001 A 
ATOM     24  C   LIG d   1      20.757   6.927  -4.471  0.00  0.00     0.009 A 
ENDBRANCH  18  19
ENDBRANCH  15  18
ENDBRANCH  14  15
ENDBRANCH  13  14
ENDBRANCH  12  13
ENDBRANCH  10  12
ENDBRANCH   3  10
BRANCH   2  25
ATOM     25  C   LIG d   1      16.103  -2.115  -7.988  0.00  0.00    -0.042 A 
ATOM     26  C   LIG d   1      14.734  -2.404  -8.114  0.00  0.00     0.044 A 
ATOM     27  C   LIG d   1      14.164  -2.516  -9.389  0.00  0.00     0.103 A 
ATOM     28  C   LIG d   1      14.935  -2.351 -10.546  0.00  0.00     0.036 A 
ATOM     29  C   LIG d   1      16.292  -2.058 -10.422  0.00  0.00     0.003 A 
ATOM     30  C   LIG d   1      16.870  -1.936  -9.155  0.00  0.00     0.008 A 
BRANCH  27  31
ATOM     31  N   LIG d   1      12.745  -2.845  -9.516  0.00  0.00    -0.116 N 
ATOM     32  O   LIG d   1      12.124  -2.357 -10.469  0.00  0.00    -0.532 OA
ATOM     33  O   LIG d   1      12.247  -3.550  -8.625  0.00  0.00    -0.532 OA
ENDBRANCH  27  31
ENDBRANCH   2  25
BRANCH   4  34
ATOM     34  C   LIG d   1      17.686  -4.340  -6.535  0.00  0.00     0.291 C 
ATOM     35  O   LIG d   1      17.282  -5.235  -7.258  0.00  0.00    -0.260 OA
BRANCH  34  36
ATOM     36  O   LIG d   1      18.976  -4.118  -6.177  0.00  0.00    -0.323 OA
ATOM     37  C   LIG d   1      19.847  -3.842  -7.274  0.00  0.00     0.213 C 
ENDBRANCH  34  36
ENDBRANCH   4  34
TORSDOF 11
ENDMDL
MODEL 8
REMARK VINA RESULT:      -5.9     28.043     30.604
REMARK  11 active torsions:
REMARK  status: ('A' for Active; 'I' for Inactive)
REMARK    1  A    between atoms: O_1  and  C_16 
REMARK    2  A    between atoms: O_1  and  C_23 
REMARK    3  A    between atoms: O_2  and  C_20 
REMARK    4  A    between atoms: N_8  and  C_22 
REMARK    5  A    between atoms: N_8  and  C_26 
REMARK    6  A    between atoms: N_9  and  C_24 
REMARK    7  A    between atoms: C_10  and  C_13 
REMARK    8  A    between atoms: C_11  and  C_16 
REMARK    9  A    between atoms: C_12  and  C_20 
REMARK   10  A    between atoms: C_22  and  C_23 
REMARK   11  A    between atoms: C_26  and  C_28 
ROOT
ATOM      1  N   LIG d   1      16.116  -2.077  -9.298  0.00  0.00    -0.362 N 
ATOM      2  C   LIG d   1      16.137  -1.671  -6.501  0.00  0.00     0.101 C 
ATOM      3  C   LIG d   1      17.389  -1.550  -7.374  0.00  0.00     0.052 C 
ATOM      4  C   LIG d   1      14.858  -1.846  -7.306  0.00  0.00     0.052 C 
ATOM      5  C   LIG d   1      17.330  -1.748  -8.711  0.00  0.00     0.018 C 
ATOM      6  C   LIG d   1      14.895  -2.063  -8.639  0.00  0.00     0.018 C 
ATOM      7  C   LIG d   1      18.492  -1.593  -9.658  0.00  0.00     0.069 C 
ATOM      8  C   LIG d   1      13.668  -2.255  -9.495  0.00  0.00     0.069 C 
ATOM      9  H   LIG d   1      16.089  -2.152 -10.314  0.00  0.00     0.165 HD
ENDROOT
BRANCH   3  10
ATOM     10  C   LIG d   1      18.614  -1.218  -6.615  0.00  0.00     0.292 C 
ATOM     11  O   LIG d   1      19.521  -2.010  -6.398  0.00  0.00    -0.259 OA
BRANCH  10  12
ATOM     12  O   LIG d   1      18.709   0.120  -6.386  0.00  0.00    -0.316 OA
BRANCH  12  13
ATOM     13  C   LIG d   1      19.852   0.740  -6.997  0.00  0.00     0.206 C 
BRANCH  13  14
ATOM     14  C   LIG d   1      20.702   1.431  -5.922  0.00  0.00     0.261 C 
BRANCH  14  15
ATOM     15  N   LIG d   1      21.015   2.878  -6.242  0.00  0.00    -0.069 N 
ATOM     16  C   LIG d   1      22.225   3.018  -7.136  0.00  0.00     0.270 C 
ATOM     17  H   LIG d   1      21.221   3.377  -5.369  0.00  0.00     0.279 HD
BRANCH  15  18
ATOM     18  C   LIG d   1      19.791   3.553  -6.840  0.00  0.00     0.273 C 
BRANCH  18  19
ATOM     19  C   LIG d   1      19.211   4.654  -5.996  0.00  0.00    -0.033 A 
ATOM     20  C   LIG d   1      19.910   5.862  -5.842  0.00  0.00     0.009 A 
ATOM     21  C   LIG d   1      19.374   6.896  -5.075  0.00  0.00     0.001 A 
ATOM     22  C   LIG d   1      18.140   6.735  -4.451  0.00  0.00     0.000 A 
ATOM     23  C   LIG d   1      17.434   5.543  -4.600  0.00  0.00     0.001 A 
ATOM     24  C   LIG d   1      17.962   4.507  -5.371  0.00  0.00     0.009 A 
ENDBRANCH  18  19
ENDBRANCH  15  18
ENDBRANCH  14  15
ENDBRANCH  13  14
ENDBRANCH  12  13
ENDBRANCH  10  12
ENDBRANCH   3  10
BRANCH   2  25
ATOM     25  C   LIG d   1      16.290  -2.812  -5.481  0.00  0.00    -0.042 A 
ATOM     26  C   LIG d   1      16.485  -4.130  -5.926  0.00  0.00     0.044 A 
ATOM     27  C   LIG d   1      16.650  -5.161  -4.992  0.00  0.00     0.103 A 
ATOM     28  C   LIG d   1      16.617  -4.904  -3.616  0.00  0.00     0.036 A 
ATOM     29  C   LIG d   1      16.431  -3.596  -3.172  0.00  0.00     0.003 A 
ATOM     30  C   LIG d   1      16.274  -2.559  -4.096  0.00  0.00     0.008 A 
BRANCH  27  31
ATOM     31  N   LIG d   1      16.823  -6.535  -5.460  0.00  0.00    -0.116 N 
ATOM     32  O   LIG d   1      15.972  -7.369  -5.124  0.00  0.00    -0.532 OA
ATOM     33  O   LIG d   1      17.845  -6.783  -6.118  0.00  0.00    -0.532 OA
ENDBRANCH  27  31
ENDBRANCH   2  25
BRANCH   4  34
ATOM     34  C   LIG d   1      13.578  -1.791  -6.563  0.00  0.00     0.291 C 
ATOM     35  O   LIG d   1      12.932  -2.768  -6.220  0.00  0.00    -0.260 OA
BRANCH  34  36
ATOM     36  O   LIG d   1      13.252  -0.494  -6.336  0.00  0.00    -0.323 OA
ATOM     37  C   LIG d   1      13.255  -0.124  -4.956  0.00  0.00     0.213 C 
ENDBRANCH  34  36
ENDBRANCH   4  34
TORSDOF 11
ENDMDL
MODEL 9
REMARK VINA RESULT:      -5.9     28.688     33.328
REMARK  11 active torsions:
REMARK  status: ('A' for Active; 'I' for Inactive)
REMARK    1  A    between atoms: O_1  and  C_16 
REMARK    2  A    between atoms: O_1  and  C_23 
REMARK    3  A    between atoms: O_2  and  C_20 
REMARK    4  A    between atoms: N_8  and  C_22 
REMARK    5  A    between atoms: N_8  and  C_26 
REMARK    6  A    between atoms: N_9  and  C_24 
REMARK    7  A    between atoms: C_10  and  C_13 
REMARK    8  A    between atoms: C_11  and  C_16 
REMARK    9  A    between atoms: C_12  and  C_20 
REMARK   10  A    between atoms: C_22  and  C_23 
REMARK   11  A    between atoms: C_26  and  C_28 
ROOT
ATOM      1  N   LIG d   1      16.168  -5.772  -8.737  0.00  0.00    -0.362 N 
ATOM      2  C   LIG d   1      14.801  -3.986  -7.026  0.00  0.00     0.101 C 
ATOM      3  C   LIG d   1      14.400  -4.219  -8.486  0.00  0.00     0.052 C 
ATOM      4  C   LIG d   1      15.880  -4.940  -6.540  0.00  0.00     0.052 C 
ATOM      5  C   LIG d   1      15.082  -5.089  -9.267  0.00  0.00     0.018 C 
ATOM      6  C   LIG d   1      16.527  -5.760  -7.397  0.00  0.00     0.018 C 
ATOM      7  C   LIG d   1      14.728  -5.429 -10.691  0.00  0.00     0.069 C 
ATOM      8  C   LIG d   1      17.613  -6.723  -6.985  0.00  0.00     0.069 C 
ATOM      9  H   LIG d   1      16.618  -6.470  -9.328  0.00  0.00     0.165 HD
ENDROOT
BRANCH   3  10
ATOM     10  C   LIG d   1      13.242  -3.410  -8.922  0.00  0.00     0.292 C 
ATOM     11  O   LIG d   1      12.096  -3.590  -8.534  0.00  0.00    -0.259 OA
BRANCH  10  12
ATOM     12  O   LIG d   1      13.638  -2.312  -9.622  0.00  0.00    -0.316 OA
BRANCH  12  13
ATOM     13  C   LIG d   1      12.778  -1.979 -10.725  0.00  0.00     0.206 C 
BRANCH  13  14
ATOM     14  C   LIG d   1      13.383  -2.510 -12.031  0.00  0.00     0.261 C 
BRANCH  14  15
ATOM     15  N   LIG d   1      12.342  -2.969 -13.032  0.00  0.00    -0.069 N 
ATOM     16  C   LIG d   1      11.522  -1.822 -13.572  0.00  0.00     0.270 C 
ATOM     17  H   LIG d   1      11.694  -3.616 -12.567  0.00  0.00     0.279 HD
BRANCH  15  18
ATOM     18  C   LIG d   1      13.008  -3.760 -14.146  0.00  0.00     0.273 C 
BRANCH  18  19
ATOM     19  C   LIG d   1      12.355  -5.079 -14.452  0.00  0.00    -0.033 A 
ATOM     20  C   LIG d   1      12.472  -6.146 -13.548  0.00  0.00     0.009 A 
ATOM     21  C   LIG d   1      11.857  -7.369 -13.812  0.00  0.00     0.001 A 
ATOM     22  C   LIG d   1      11.122  -7.542 -14.982  0.00  0.00     0.000 A 
ATOM     23  C   LIG d   1      10.994  -6.489 -15.886  0.00  0.00     0.001 A 
ATOM     24  C   LIG d   1      11.602  -5.261 -15.623  0.00  0.00     0.009 A 
ENDBRANCH  18  19
ENDBRANCH  15  18
ENDBRANCH  14  15
ENDBRANCH  13  14
ENDBRANCH  12  13
ENDBRANCH  10  12
ENDBRANCH   3  10
BRANCH   2  25
ATOM     25  C   LIG d   1      15.234  -2.527  -6.805  0.00  0.00    -0.042 A 
ATOM     26  C   LIG d   1      14.608  -1.752  -5.816  0.00  0.00     0.044 A 
ATOM     27  C   LIG d   1      15.024  -0.431  -5.602  0.00  0.00     0.103 A 
ATOM     28  C   LIG d   1      16.053   0.137  -6.364  0.00  0.00     0.036 A 
ATOM     29  C   LIG d   1      16.680  -0.633  -7.341  0.00  0.00     0.003 A 
ATOM     30  C   LIG d   1      16.278  -1.954  -7.557  0.00  0.00     0.008 A 
BRANCH  27  31
ATOM     31  N   LIG d   1      14.350   0.382  -4.591  0.00  0.00    -0.116 N 
ATOM     32  O   LIG d   1      13.183   0.728  -4.816  0.00  0.00    -0.532 OA
ATOM     33  O   LIG d   1      15.015   0.715  -3.599  0.00  0.00    -0.532 OA
ENDBRANCH  27  31
ENDBRANCH   2  25
BRANCH   4  34
ATOM     34  C   LIG d   1      16.206  -4.914  -5.095  0.00  0.00     0.291 C 
ATOM     35  O   LIG d   1      15.629  -5.568  -4.242  0.00  0.00    -0.260 OA
BRANCH  34  36
ATOM     36  O   LIG d   1      17.234  -4.053  -4.887  0.00  0.00    -0.323 OA
ATOM     37  C   LIG d   1      17.310  -3.547  -3.553  0.00  0.00     0.213 C 
ENDBRANCH  34  36
ENDBRANCH   4  34
TORSDOF 11
ENDMDL
