MODEL 1
REMARK minimizedAffinity -5.29447842REMARK CNNscore 0.877876222REMARK CNNaffinity 3.7150147REMARK  2 active torsions:
REMARK  status: ('A' for Active; 'I' for Inactive)
REMARK    1  A    between atoms: O_1  and  C_9 
REMARK    2  A    between atoms: N_3  and  C_4 
REMARK       I    between atoms: N_3  and  C_10 
ROOT
ATOM      1  C   LIG d   1      19.133   7.428  -4.018  0.00  0.00     0.034 A 
ATOM      2  C   LIG d   1      20.090   7.305  -5.028  0.00  0.00     0.032 A 
ATOM      3  C   LIG d   1      17.849   6.909  -4.236  0.00  0.00     0.032 A 
ATOM      4  C   LIG d   1      19.773   6.674  -6.237  0.00  0.00     0.039 A 
ATOM      5  C   LIG d   1      17.530   6.278  -5.441  0.00  0.00     0.039 A 
ATOM      6  C   LIG d   1      18.495   6.166  -6.432  0.00  0.00     0.065 A 
ENDROOT
BRANCH   1   7
ATOM      7  N   LIG d   1      19.374   8.046  -2.774  0.00  0.00    -0.328 N 
ATOM      8  C   LIG d   1      19.776   9.351  -2.546  0.00  0.00     0.218 C 
ATOM      9  O   LIG d   1      19.996  10.217  -3.384  0.00  0.00    -0.274 OA
ATOM     10  C   LIG d   1      19.934   9.637  -1.074  0.00  0.00     0.117 C 
ATOM     11  H   LIG d   1      19.236   7.466  -1.958  0.00  0.00     0.169 HD
ENDBRANCH   1   7
BRANCH   6  12
ATOM     12  O   LIG d   1      18.144   5.544  -7.593  0.00  0.00    -0.361 OA
ATOM     13  H   LIG d   1      18.916   5.539  -8.185  0.00  0.00     0.217 HD
ENDBRANCH   6  12
TORSDOF 2
ENDMDL
MODEL 2
REMARK minimizedAffinity -5.62109852REMARK CNNscore 0.814570606REMARK CNNaffinity 4.0881772REMARK  2 active torsions:
REMARK  status: ('A' for Active; 'I' for Inactive)
REMARK    1  A    between atoms: O_1  and  C_9 
REMARK    2  A    between atoms: N_3  and  C_4 
REMARK       I    between atoms: N_3  and  C_10 
ROOT
ATOM      1  C   LIG d   1       7.713  -2.615  19.049  0.00  0.00     0.034 A 
ATOM      2  C   LIG d   1       7.300  -3.863  19.522  0.00  0.00     0.032 A 
ATOM      3  C   LIG d   1       8.751  -2.556  18.109  0.00  0.00     0.032 A 
ATOM      4  C   LIG d   1       7.912  -5.036  19.064  0.00  0.00     0.039 A 
ATOM      5  C   LIG d   1       9.363  -3.726  17.650  0.00  0.00     0.039 A 
ATOM      6  C   LIG d   1       8.940  -4.956  18.132  0.00  0.00     0.065 A 
ENDROOT
BRANCH   1   7
ATOM      7  N   LIG d   1       7.146  -1.390  19.458  0.00  0.00    -0.328 N 
ATOM      8  C   LIG d   1       6.756  -0.332  18.656  0.00  0.00     0.218 C 
ATOM      9  O   LIG d   1       6.827  -0.261  17.434  0.00  0.00    -0.274 OA
ATOM     10  C   LIG d   1       6.198   0.810  19.468  0.00  0.00     0.117 C 
ATOM     11  H   LIG d   1       7.012  -1.276  20.454  0.00  0.00     0.169 HD
ENDBRANCH   1   7
BRANCH   6  12
ATOM     12  O   LIG d   1       9.562  -6.073  17.660  0.00  0.00    -0.361 OA
ATOM     13  H   LIG d   1       9.161  -6.850  18.082  0.00  0.00     0.217 HD
ENDBRANCH   6  12
TORSDOF 2
ENDMDL
MODEL 3
REMARK minimizedAffinity -3.98414326REMARK CNNscore 0.797315478REMARK CNNaffinity 3.01036334REMARK  2 active torsions:
REMARK  status: ('A' for Active; 'I' for Inactive)
REMARK    1  A    between atoms: O_1  and  C_9 
REMARK    2  A    between atoms: N_3  and  C_4 
REMARK       I    between atoms: N_3  and  C_10 
ROOT
ATOM      1  C   LIG d   1      22.660   6.172  21.584  0.00  0.00     0.034 A 
ATOM      2  C   LIG d   1      21.947   6.410  22.761  0.00  0.00     0.032 A 
ATOM      3  C   LIG d   1      23.903   5.529  21.663  0.00  0.00     0.032 A 
ATOM      4  C   LIG d   1      22.464   6.011  24.000  0.00  0.00     0.039 A 
ATOM      5  C   LIG d   1      24.421   5.130  22.899  0.00  0.00     0.039 A 
ATOM      6  C   LIG d   1      23.698   5.375  24.057  0.00  0.00     0.065 A 
ENDROOT
BRANCH   1   7
ATOM      7  N   LIG d   1      22.208   6.540  20.300  0.00  0.00    -0.328 N 
ATOM      8  C   LIG d   1      22.050   7.819  19.796  0.00  0.00     0.218 C 
ATOM      9  O   LIG d   1      22.278   8.876  20.372  0.00  0.00    -0.274 OA
ATOM     10  C   LIG d   1      21.536   7.802  18.379  0.00  0.00     0.117 C 
ATOM     11  H   LIG d   1      21.971   5.777  19.679  0.00  0.00     0.169 HD
ENDBRANCH   1   7
BRANCH   6  12
ATOM     12  O   LIG d   1      24.237   4.970  25.241  0.00  0.00    -0.361 OA
ATOM     13  H   LIG d   1      23.622   5.205  25.956  0.00  0.00     0.217 HD
ENDBRANCH   6  12
TORSDOF 2
ENDMDL
MODEL 4
REMARK minimizedAffinity -4.82520485REMARK CNNscore 0.785024166REMARK CNNaffinity 3.04084539REMARK  2 active torsions:
REMARK  status: ('A' for Active; 'I' for Inactive)
REMARK    1  A    between atoms: O_1  and  C_9 
REMARK    2  A    between atoms: N_3  and  C_4 
REMARK       I    between atoms: N_3  and  C_10 
ROOT
ATOM      1  C   LIG d   1       2.956 -12.842  -6.217  0.00  0.00     0.034 A 
ATOM      2  C   LIG d   1       4.053 -11.990  -6.064  0.00  0.00     0.032 A 
ATOM      3  C   LIG d   1       2.294 -13.304  -5.071  0.00  0.00     0.032 A 
ATOM      4  C   LIG d   1       4.483 -11.604  -4.789  0.00  0.00     0.039 A 
ATOM      5  C   LIG d   1       2.721 -12.920  -3.797  0.00  0.00     0.039 A 
ATOM      6  C   LIG d   1       3.813 -12.074  -3.666  0.00  0.00     0.065 A 
ENDROOT
BRANCH   1   7
ATOM      7  N   LIG d   1       2.461 -13.273  -7.464  0.00  0.00    -0.328 N 
ATOM      8  C   LIG d   1       2.454 -14.562  -7.968  0.00  0.00     0.218 C 
ATOM      9  O   LIG d   1       2.876 -15.575  -7.422  0.00  0.00    -0.274 OA
ATOM     10  C   LIG d   1       1.843 -14.621  -9.345  0.00  0.00     0.117 C 
ATOM     11  H   LIG d   1       2.067 -12.554  -8.056  0.00  0.00     0.169 HD
ENDBRANCH   1   7
BRANCH   6  12
ATOM     12  O   LIG d   1       4.198 -11.723  -2.407  0.00  0.00    -0.361 OA
ATOM     13  H   LIG d   1       4.966 -11.132  -2.473  0.00  0.00     0.217 HD
ENDBRANCH   6  12
TORSDOF 2
ENDMDL
MODEL 5
REMARK minimizedAffinity -4.56472921REMARK CNNscore 0.754095614REMARK CNNaffinity 3.01121855REMARK  2 active torsions:
REMARK  status: ('A' for Active; 'I' for Inactive)
REMARK    1  A    between atoms: O_1  and  C_9 
REMARK    2  A    between atoms: N_3  and  C_4 
REMARK       I    between atoms: N_3  and  C_10 
ROOT
ATOM      1  C   LIG d   1       2.689 -12.266  -6.199  0.00  0.00     0.034 A 
ATOM      2  C   LIG d   1       1.997 -12.752  -5.087  0.00  0.00     0.032 A 
ATOM      3  C   LIG d   1       3.923 -11.629  -6.004  0.00  0.00     0.032 A 
ATOM      4  C   LIG d   1       2.527 -12.608  -3.800  0.00  0.00     0.039 A 
ATOM      5  C   LIG d   1       4.454 -11.484  -4.719  0.00  0.00     0.039 A 
ATOM      6  C   LIG d   1       3.752 -11.974  -3.628  0.00  0.00     0.065 A 
ENDROOT
BRANCH   1   7
ATOM      7  N   LIG d   1       2.225 -12.374  -7.526  0.00  0.00    -0.328 N 
ATOM      8  C   LIG d   1       1.265 -11.595  -8.149  0.00  0.00     0.218 C 
ATOM      9  O   LIG d   1       0.638 -10.661  -7.665  0.00  0.00    -0.274 OA
ATOM     10  C   LIG d   1       1.037 -12.025  -9.577  0.00  0.00     0.117 C 
ATOM     11  H   LIG d   1       2.645 -13.106  -8.083  0.00  0.00     0.169 HD
ENDBRANCH   1   7
BRANCH   6  12
ATOM     12  O   LIG d   1       4.303 -11.813  -2.392  0.00  0.00    -0.361 OA
ATOM     13  H   LIG d   1       3.704 -12.204  -1.734  0.00  0.00     0.217 HD
ENDBRANCH   6  12
TORSDOF 2
ENDMDL
MODEL 6
REMARK minimizedAffinity -3.70379424REMARK CNNscore 0.739662886REMARK CNNaffinity 3.28668785REMARK  2 active torsions:
REMARK  status: ('A' for Active; 'I' for Inactive)
REMARK    1  A    between atoms: O_1  and  C_9 
REMARK    2  A    between atoms: N_3  and  C_4 
REMARK       I    between atoms: N_3  and  C_10 
ROOT
ATOM      1  C   LIG d   1       8.034  23.108  -0.833  0.00  0.00     0.034 A 
ATOM      2  C   LIG d   1       7.784  23.297  -2.194  0.00  0.00     0.032 A 
ATOM      3  C   LIG d   1       6.998  23.336   0.083  0.00  0.00     0.032 A 
ATOM      4  C   LIG d   1       6.521  23.705  -2.637  0.00  0.00     0.039 A 
ATOM      5  C   LIG d   1       5.735  23.743  -0.357  0.00  0.00     0.039 A 
ATOM      6  C   LIG d   1       5.507  23.925  -1.713  0.00  0.00     0.065 A 
ENDROOT
BRANCH   1   7
ATOM      7  N   LIG d   1       9.276  22.697  -0.308  0.00  0.00    -0.328 N 
ATOM      8  C   LIG d   1      10.372  23.490  -0.016  0.00  0.00     0.218 C 
ATOM      9  O   LIG d   1      10.468  24.704  -0.156  0.00  0.00    -0.274 OA
ATOM     10  C   LIG d   1      11.522  22.679   0.525  0.00  0.00     0.117 C 
ATOM     11  H   LIG d   1       9.374  21.707  -0.127  0.00  0.00     0.169 HD
ENDBRANCH   1   7
BRANCH   6  12
ATOM     12  O   LIG d   1       4.262  24.322  -2.101  0.00  0.00    -0.361 OA
ATOM     13  H   LIG d   1       4.254  24.404  -3.069  0.00  0.00     0.217 HD
ENDBRANCH   6  12
TORSDOF 2
ENDMDL
MODEL 7
REMARK minimizedAffinity -4.51901674REMARK CNNscore 0.720512271REMARK CNNaffinity 3.34433627REMARK  2 active torsions:
REMARK  status: ('A' for Active; 'I' for Inactive)
REMARK    1  A    between atoms: O_1  and  C_9 
REMARK    2  A    between atoms: N_3  and  C_4 
REMARK       I    between atoms: N_3  and  C_10 
ROOT
ATOM      1  C   LIG d   1      19.222   4.408  -5.934  0.00  0.00     0.034 A 
ATOM      2  C   LIG d   1      19.535   4.767  -4.621  0.00  0.00     0.032 A 
ATOM      3  C   LIG d   1      18.156   5.054  -6.576  0.00  0.00     0.032 A 
ATOM      4  C   LIG d   1      18.800   5.756  -3.958  0.00  0.00     0.039 A 
ATOM      5  C   LIG d   1      17.420   6.042  -5.916  0.00  0.00     0.039 A 
ATOM      6  C   LIG d   1      17.747   6.385  -4.613  0.00  0.00     0.065 A 
ENDROOT
BRANCH   1   7
ATOM      7  N   LIG d   1      19.915   3.425  -6.670  0.00  0.00    -0.328 N 
ATOM      8  C   LIG d   1      19.689   2.060  -6.675  0.00  0.00     0.218 C 
ATOM      9  O   LIG d   1      18.838   1.447  -6.041  0.00  0.00    -0.274 OA
ATOM     10  C   LIG d   1      20.646   1.338  -7.589  0.00  0.00     0.117 C 
ATOM     11  H   LIG d   1      20.664   3.762  -7.260  0.00  0.00     0.169 HD
ENDBRANCH   1   7
BRANCH   6  12
ATOM     12  O   LIG d   1      17.005   7.353  -4.004  0.00  0.00    -0.361 OA
ATOM     13  H   LIG d   1      17.350   7.485  -3.105  0.00  0.00     0.217 HD
ENDBRANCH   6  12
TORSDOF 2
ENDMDL
MODEL 8
REMARK minimizedAffinity -3.9342134REMARK CNNscore 0.643823266REMARK CNNaffinity 3.31648111REMARK  2 active torsions:
REMARK  status: ('A' for Active; 'I' for Inactive)
REMARK    1  A    between atoms: O_1  and  C_9 
REMARK    2  A    between atoms: N_3  and  C_4 
REMARK       I    between atoms: N_3  and  C_10 
ROOT
ATOM      1  C   LIG d   1      24.669  -1.575  17.542  0.00  0.00     0.034 A 
ATOM      2  C   LIG d   1      23.387  -1.102  17.834  0.00  0.00     0.032 A 
ATOM      3  C   LIG d   1      25.417  -2.178  18.563  0.00  0.00     0.032 A 
ATOM      4  C   LIG d   1      22.857  -1.230  19.124  0.00  0.00     0.039 A 
ATOM      5  C   LIG d   1      24.890  -2.306  19.851  0.00  0.00     0.039 A 
ATOM      6  C   LIG d   1      23.615  -1.831  20.121  0.00  0.00     0.065 A 
ENDROOT
BRANCH   1   7
ATOM      7  N   LIG d   1      25.271  -1.486  16.270  0.00  0.00    -0.328 N 
ATOM      8  C   LIG d   1      24.969  -2.227  15.141  0.00  0.00     0.218 C 
ATOM      9  O   LIG d   1      24.117  -3.101  15.033  0.00  0.00    -0.274 OA
ATOM     10  C   LIG d   1      25.840  -1.844  13.971  0.00  0.00     0.117 C 
ATOM     11  H   LIG d   1      26.008  -0.800  16.177  0.00  0.00     0.169 HD
ENDBRANCH   1   7
BRANCH   6  12
ATOM     12  O   LIG d   1      23.138  -1.976  21.390  0.00  0.00    -0.361 OA
ATOM     13  H   LIG d   1      22.242  -1.602  21.426  0.00  0.00     0.217 HD
ENDBRANCH   6  12
TORSDOF 2
ENDMDL
MODEL 9
REMARK minimizedAffinity -4.20289373REMARK CNNscore 0.642330885REMARK CNNaffinity 3.09937525REMARK  2 active torsions:
REMARK  status: ('A' for Active; 'I' for Inactive)
REMARK    1  A    between atoms: O_1  and  C_9 
REMARK    2  A    between atoms: N_3  and  C_4 
REMARK       I    between atoms: N_3  and  C_10 
ROOT
ATOM      1  C   LIG d   1       6.920  27.845 -13.285  0.00  0.00     0.034 A 
ATOM      2  C   LIG d   1       6.139  27.135 -14.200  0.00  0.00     0.032 A 
ATOM      3  C   LIG d   1       7.579  29.005 -13.714  0.00  0.00     0.032 A 
ATOM      4  C   LIG d   1       6.015  27.575 -15.523  0.00  0.00     0.039 A 
ATOM      5  C   LIG d   1       7.457  29.446 -15.035  0.00  0.00     0.039 A 
ATOM      6  C   LIG d   1       6.676  28.728 -15.928  0.00  0.00     0.065 A 
ENDROOT
BRANCH   1   7
ATOM      7  N   LIG d   1       7.093  27.468 -11.937  0.00  0.00    -0.328 N 
ATOM      8  C   LIG d   1       6.172  27.570 -10.909  0.00  0.00     0.218 C 
ATOM      9  O   LIG d   1       5.028  28.004 -10.978  0.00  0.00    -0.274 OA
ATOM     10  C   LIG d   1       6.734  27.067  -9.603  0.00  0.00     0.117 C 
ATOM     11  H   LIG d   1       7.996  27.080 -11.699  0.00  0.00     0.169 HD
ENDBRANCH   1   7
BRANCH   6  12
ATOM     12  O   LIG d   1       6.583  29.192 -17.207  0.00  0.00    -0.361 OA
ATOM     13  H   LIG d   1       6.007  28.592 -17.710  0.00  0.00     0.217 HD
ENDBRANCH   6  12
TORSDOF 2
ENDMDL
