MODEL 1
REMARK VINA RESULT:      -7.1      0.000      0.000
REMARK  11 active torsions:
REMARK  status: ('A' for Active; 'I' for Inactive)
REMARK    1  A    between atoms: O_1  and  C_16 
REMARK    2  A    between atoms: O_1  and  C_23 
REMARK    3  A    between atoms: O_2  and  C_20 
REMARK    4  A    between atoms: N_8  and  C_22 
REMARK    5  A    between atoms: N_8  and  C_26 
REMARK    6  A    between atoms: N_9  and  C_24 
REMARK    7  A    between atoms: C_10  and  C_13 
REMARK    8  A    between atoms: C_11  and  C_16 
REMARK    9  A    between atoms: C_12  and  C_20 
REMARK   10  A    between atoms: C_22  and  C_23 
REMARK   11  A    between atoms: C_26  and  C_28 
ROOT
ATOM      1  N   LIG d   1      18.261  -6.220  -4.527  0.00  0.00    -0.362 N 
ATOM      2  C   LIG d   1      16.008  -4.562  -4.133  0.00  0.00     0.101 C 
ATOM      3  C   LIG d   1      16.041  -5.698  -5.159  0.00  0.00     0.052 C 
ATOM      4  C   LIG d   1      17.228  -4.534  -3.227  0.00  0.00     0.052 C 
ATOM      5  C   LIG d   1      17.142  -6.471  -5.309  0.00  0.00     0.018 C 
ATOM      6  C   LIG d   1      18.295  -5.326  -3.466  0.00  0.00     0.018 C 
ATOM      7  C   LIG d   1      17.250  -7.647  -6.245  0.00  0.00     0.069 C 
ATOM      8  C   LIG d   1      19.541  -5.343  -2.615  0.00  0.00     0.069 C 
ATOM      9  H   LIG d   1      19.049  -6.861  -4.614  0.00  0.00     0.165 HD
ENDROOT
BRANCH   3  10
ATOM     10  C   LIG d   1      14.791  -5.837  -5.936  0.00  0.00     0.292 C 
ATOM     11  O   LIG d   1      13.714  -6.150  -5.449  0.00  0.00    -0.259 OA
BRANCH  10  12
ATOM     12  O   LIG d   1      14.937  -5.359  -7.202  0.00  0.00    -0.316 OA
BRANCH  12  13
ATOM     13  C   LIG d   1      13.696  -5.107  -7.880  0.00  0.00     0.206 C 
BRANCH  13  14
ATOM     14  C   LIG d   1      13.972  -4.748  -9.347  0.00  0.00     0.261 C 
BRANCH  14  15
ATOM     15  N   LIG d   1      15.400  -4.312  -9.600  0.00  0.00    -0.069 N 
ATOM     16  C   LIG d   1      16.104  -5.207 -10.594  0.00  0.00     0.270 C 
ATOM     17  H   LIG d   1      15.926  -4.360  -8.720  0.00  0.00     0.279 HD
BRANCH  15  18
ATOM     18  C   LIG d   1      15.428  -2.855 -10.034  0.00  0.00     0.273 C 
BRANCH  18  19
ATOM     19  C   LIG d   1      14.554  -2.540 -11.216  0.00  0.00    -0.033 A 
ATOM     20  C   LIG d   1      13.252  -2.054 -11.015  0.00  0.00     0.009 A 
ATOM     21  C   LIG d   1      12.437  -1.742 -12.102  0.00  0.00     0.001 A 
ATOM     22  C   LIG d   1      12.910  -1.915 -13.401  0.00  0.00     0.000 A 
ATOM     23  C   LIG d   1      14.201  -2.392 -13.615  0.00  0.00     0.001 A 
ATOM     24  C   LIG d   1      15.023  -2.700 -12.529  0.00  0.00     0.009 A 
ENDBRANCH  18  19
ENDBRANCH  15  18
ENDBRANCH  14  15
ENDBRANCH  13  14
ENDBRANCH  12  13
ENDBRANCH  10  12
ENDBRANCH   3  10
BRANCH   2  25
ATOM     25  C   LIG d   1      15.824  -3.203  -4.830  0.00  0.00    -0.042 A 
ATOM     26  C   LIG d   1      14.778  -2.351  -4.442  0.00  0.00     0.044 A 
ATOM     27  C   LIG d   1      14.632  -1.103  -5.064  0.00  0.00     0.103 A 
ATOM     28  C   LIG d   1      15.508  -0.690  -6.075  0.00  0.00     0.036 A 
ATOM     29  C   LIG d   1      16.552  -1.532  -6.456  0.00  0.00     0.003 A 
ATOM     30  C   LIG d   1      16.711  -2.775  -5.837  0.00  0.00     0.008 A 
BRANCH  27  31
ATOM     31  N   LIG d   1      13.524  -0.232  -4.677  0.00  0.00    -0.116 N 
ATOM     32  O   LIG d   1      12.377  -0.593  -4.972  0.00  0.00    -0.532 OA
ATOM     33  O   LIG d   1      13.815   0.841  -4.126  0.00  0.00    -0.532 OA
ENDBRANCH  27  31
ENDBRANCH   2  25
BRANCH   4  34
ATOM     34  C   LIG d   1      17.204  -3.586  -2.089  0.00  0.00     0.291 C 
ATOM     35  O   LIG d   1      16.452  -3.669  -1.133  0.00  0.00    -0.260 OA
BRANCH  34  36
ATOM     36  O   LIG d   1      18.143  -2.627  -2.291  0.00  0.00    -0.323 OA
ATOM     37  C   LIG d   1      17.633  -1.293  -2.245  0.00  0.00     0.213 C 
ENDBRANCH  34  36
ENDBRANCH   4  34
TORSDOF 11
ENDMDL
MODEL 2
REMARK VINA RESULT:      -6.7     21.006     24.689
REMARK  11 active torsions:
REMARK  status: ('A' for Active; 'I' for Inactive)
REMARK    1  A    between atoms: O_1  and  C_16 
REMARK    2  A    between atoms: O_1  and  C_23 
REMARK    3  A    between atoms: O_2  and  C_20 
REMARK    4  A    between atoms: N_8  and  C_22 
REMARK    5  A    between atoms: N_8  and  C_26 
REMARK    6  A    between atoms: N_9  and  C_24 
REMARK    7  A    between atoms: C_10  and  C_13 
REMARK    8  A    between atoms: C_11  and  C_16 
REMARK    9  A    between atoms: C_12  and  C_20 
REMARK   10  A    between atoms: C_22  and  C_23 
REMARK   11  A    between atoms: C_26  and  C_28 
ROOT
ATOM      1  N   LIG d   1       7.871  14.260   6.643  0.00  0.00    -0.362 N 
ATOM      2  C   LIG d   1       8.695  15.044   4.056  0.00  0.00     0.101 C 
ATOM      3  C   LIG d   1       9.505  15.347   5.320  0.00  0.00     0.052 C 
ATOM      4  C   LIG d   1       7.508  14.127   4.308  0.00  0.00     0.052 C 
ATOM      5  C   LIG d   1       9.073  14.946   6.539  0.00  0.00     0.018 C 
ATOM      6  C   LIG d   1       7.133  13.797   5.563  0.00  0.00     0.018 C 
ATOM      7  C   LIG d   1       9.826  15.144   7.828  0.00  0.00     0.069 C 
ATOM      8  C   LIG d   1       5.963  12.901   5.885  0.00  0.00     0.069 C 
ATOM      9  H   LIG d   1       7.606  13.912   7.564  0.00  0.00     0.165 HD
ENDROOT
BRANCH   3  10
ATOM     10  C   LIG d   1      10.749  16.102   5.063  0.00  0.00     0.292 C 
ATOM     11  O   LIG d   1      11.670  15.689   4.373  0.00  0.00    -0.259 OA
BRANCH  10  12
ATOM     12  O   LIG d   1      10.649  17.388   5.497  0.00  0.00    -0.316 OA
BRANCH  12  13
ATOM     13  C   LIG d   1      11.533  18.303   4.829  0.00  0.00     0.206 C 
BRANCH  13  14
ATOM     14  C   LIG d   1      11.693  19.576   5.672  0.00  0.00     0.261 C 
BRANCH  14  15
ATOM     15  N   LIG d   1      11.675  20.848   4.848  0.00  0.00    -0.069 N 
ATOM     16  C   LIG d   1      12.724  21.836   5.299  0.00  0.00     0.270 C 
ATOM     17  H   LIG d   1      10.761  21.302   4.955  0.00  0.00     0.279 HD
BRANCH  15  18
ATOM     18  C   LIG d   1      11.814  20.511   3.372  0.00  0.00     0.273 C 
BRANCH  18  19
ATOM     19  C   LIG d   1      10.773  21.140   2.488  0.00  0.00    -0.033 A 
ATOM     20  C   LIG d   1       9.542  21.541   3.031  0.00  0.00     0.009 A 
ATOM     21  C   LIG d   1       8.574  22.140   2.225  0.00  0.00     0.001 A 
ATOM     22  C   LIG d   1       8.822  22.340   0.869  0.00  0.00     0.000 A 
ATOM     23  C   LIG d   1      10.042  21.951   0.319  0.00  0.00     0.001 A 
ATOM     24  C   LIG d   1      11.016  21.357   1.123  0.00  0.00     0.009 A 
ENDBRANCH  18  19
ENDBRANCH  15  18
ENDBRANCH  14  15
ENDBRANCH  13  14
ENDBRANCH  12  13
ENDBRANCH  10  12
ENDBRANCH   3  10
BRANCH   2  25
ATOM     25  C   LIG d   1       8.233  16.346   3.379  0.00  0.00    -0.042 A 
ATOM     26  C   LIG d   1       8.829  16.760   2.177  0.00  0.00     0.044 A 
ATOM     27  C   LIG d   1       8.386  17.934   1.552  0.00  0.00     0.103 A 
ATOM     28  C   LIG d   1       7.362  18.709   2.108  0.00  0.00     0.036 A 
ATOM     29  C   LIG d   1       6.764  18.295   3.297  0.00  0.00     0.003 A 
ATOM     30  C   LIG d   1       7.193  17.122   3.925  0.00  0.00     0.008 A 
BRANCH  27  31
ATOM     31  N   LIG d   1       9.029  18.377   0.316  0.00  0.00    -0.116 N 
ATOM     32  O   LIG d   1       8.351  19.040  -0.480  0.00  0.00    -0.532 OA
ATOM     33  O   LIG d   1      10.198  18.009   0.124  0.00  0.00    -0.532 OA
ENDBRANCH  27  31
ENDBRANCH   2  25
BRANCH   4  34
ATOM     34  C   LIG d   1       6.772  13.632   3.122  0.00  0.00     0.291 C 
ATOM     35  O   LIG d   1       5.630  13.947   2.833  0.00  0.00    -0.260 OA
BRANCH  34  36
ATOM     36  O   LIG d   1       7.569  12.780   2.428  0.00  0.00    -0.323 OA
ATOM     37  C   LIG d   1       7.471  11.418   2.846  0.00  0.00     0.213 C 
ENDBRANCH  34  36
ENDBRANCH   4  34
TORSDOF 11
ENDMDL
MODEL 3
REMARK VINA RESULT:      -6.6      2.387      7.528
REMARK  11 active torsions:
REMARK  status: ('A' for Active; 'I' for Inactive)
REMARK    1  A    between atoms: O_1  and  C_16 
REMARK    2  A    between atoms: O_1  and  C_23 
REMARK    3  A    between atoms: O_2  and  C_20 
REMARK    4  A    between atoms: N_8  and  C_22 
REMARK    5  A    between atoms: N_8  and  C_26 
REMARK    6  A    between atoms: N_9  and  C_24 
REMARK    7  A    between atoms: C_10  and  C_13 
REMARK    8  A    between atoms: C_11  and  C_16 
REMARK    9  A    between atoms: C_12  and  C_20 
REMARK   10  A    between atoms: C_22  and  C_23 
REMARK   11  A    between atoms: C_26  and  C_28 
ROOT
ATOM      1  N   LIG d   1      15.343  -6.104 -11.556  0.00  0.00    -0.362 N 
ATOM      2  C   LIG d   1      15.997  -3.789 -10.073  0.00  0.00     0.101 C 
ATOM      3  C   LIG d   1      16.946  -4.982 -10.223  0.00  0.00     0.052 C 
ATOM      4  C   LIG d   1      14.757  -3.894 -10.945  0.00  0.00     0.052 C 
ATOM      5  C   LIG d   1      16.591  -6.068 -10.949  0.00  0.00     0.018 C 
ATOM      6  C   LIG d   1      14.468  -5.029 -11.618  0.00  0.00     0.018 C 
ATOM      7  C   LIG d   1      17.475  -7.261 -11.204  0.00  0.00     0.069 C 
ATOM      8  C   LIG d   1      13.251  -5.204 -12.492  0.00  0.00     0.069 C 
ATOM      9  H   LIG d   1      15.132  -6.904 -12.151  0.00  0.00     0.165 HD
ENDROOT
BRANCH   3  10
ATOM     10  C   LIG d   1      18.228  -4.818  -9.507  0.00  0.00     0.292 C 
ATOM     11  O   LIG d   1      18.992  -3.878  -9.678  0.00  0.00    -0.259 OA
BRANCH  10  12
ATOM     12  O   LIG d   1      18.345  -5.710  -8.486  0.00  0.00    -0.316 OA
BRANCH  12  13
ATOM     13  C   LIG d   1      18.719  -5.119  -7.231  0.00  0.00     0.206 C 
BRANCH  13  14
ATOM     14  C   LIG d   1      19.270  -6.201  -6.293  0.00  0.00     0.261 C 
BRANCH  14  15
ATOM     15  N   LIG d   1      18.190  -6.944  -5.533  0.00  0.00    -0.069 N 
ATOM     16  C   LIG d   1      17.966  -8.337  -6.073  0.00  0.00     0.270 C 
ATOM     17  H   LIG d   1      17.304  -6.434  -5.627  0.00  0.00     0.279 HD
BRANCH  15  18
ATOM     18  C   LIG d   1      18.518  -6.961  -4.049  0.00  0.00     0.273 C 
BRANCH  18  19
ATOM     19  C   LIG d   1      18.094  -5.726  -3.303  0.00  0.00    -0.033 A 
ATOM     20  C   LIG d   1      16.741  -5.352  -3.277  0.00  0.00     0.009 A 
ATOM     21  C   LIG d   1      16.334  -4.218  -2.575  0.00  0.00     0.001 A 
ATOM     22  C   LIG d   1      17.271  -3.444  -1.895  0.00  0.00     0.000 A 
ATOM     23  C   LIG d   1      18.616  -3.807  -1.909  0.00  0.00     0.001 A 
ATOM     24  C   LIG d   1      19.029  -4.944  -2.605  0.00  0.00     0.009 A 
ENDBRANCH  18  19
ENDBRANCH  15  18
ENDBRANCH  14  15
ENDBRANCH  13  14
ENDBRANCH  12  13
ENDBRANCH  10  12
ENDBRANCH   3  10
BRANCH   2  25
ATOM     25  C   LIG d   1      15.604  -3.588  -8.600  0.00  0.00    -0.042 A 
ATOM     26  C   LIG d   1      16.003  -2.427  -7.919  0.00  0.00     0.044 A 
ATOM     27  C   LIG d   1      15.619  -2.239  -6.584  0.00  0.00     0.103 A 
ATOM     28  C   LIG d   1      14.848  -3.192  -5.910  0.00  0.00     0.036 A 
ATOM     29  C   LIG d   1      14.444  -4.342  -6.586  0.00  0.00     0.003 A 
ATOM     30  C   LIG d   1      14.815  -4.537  -7.920  0.00  0.00     0.008 A 
BRANCH  27  31
ATOM     31  N   LIG d   1      16.062  -1.041  -5.871  0.00  0.00    -0.116 N 
ATOM     32  O   LIG d   1      16.892  -1.186  -4.964  0.00  0.00    -0.532 OA
ATOM     33  O   LIG d   1      15.530   0.033  -6.187  0.00  0.00    -0.532 OA
ENDBRANCH  27  31
ENDBRANCH   2  25
BRANCH   4  34
ATOM     34  C   LIG d   1      13.870  -2.709 -11.005  0.00  0.00     0.291 C 
ATOM     35  O   LIG d   1      12.882  -2.545 -10.309  0.00  0.00    -0.260 OA
BRANCH  34  36
ATOM     36  O   LIG d   1      14.334  -1.855 -11.952  0.00  0.00    -0.323 OA
ATOM     37  C   LIG d   1      13.313  -1.266 -12.759  0.00  0.00     0.213 C 
ENDBRANCH  34  36
ENDBRANCH   4  34
TORSDOF 11
ENDMDL
MODEL 4
REMARK VINA RESULT:      -6.6     22.431     25.936
REMARK  11 active torsions:
REMARK  status: ('A' for Active; 'I' for Inactive)
REMARK    1  A    between atoms: O_1  and  C_16 
REMARK    2  A    between atoms: O_1  and  C_23 
REMARK    3  A    between atoms: O_2  and  C_20 
REMARK    4  A    between atoms: N_8  and  C_22 
REMARK    5  A    between atoms: N_8  and  C_26 
REMARK    6  A    between atoms: N_9  and  C_24 
REMARK    7  A    between atoms: C_10  and  C_13 
REMARK    8  A    between atoms: C_11  and  C_16 
REMARK    9  A    between atoms: C_12  and  C_20 
REMARK   10  A    between atoms: C_22  and  C_23 
REMARK   11  A    between atoms: C_26  and  C_28 
ROOT
ATOM      1  N   LIG d   1      10.507  16.634   6.946  0.00  0.00    -0.362 N 
ATOM      2  C   LIG d   1      10.506  17.164   4.170  0.00  0.00     0.101 C 
ATOM      3  C   LIG d   1      11.201  18.065   5.194  0.00  0.00     0.052 C 
ATOM      4  C   LIG d   1       9.979  15.869   4.769  0.00  0.00     0.052 C 
ATOM      5  C   LIG d   1      11.181  17.768   6.514  0.00  0.00     0.018 C 
ATOM      6  C   LIG d   1       9.976  15.667   6.105  0.00  0.00     0.018 C 
ATOM      7  C   LIG d   1      11.884  18.558   7.587  0.00  0.00     0.069 C 
ATOM      8  C   LIG d   1       9.461  14.412   6.766  0.00  0.00     0.069 C 
ATOM      9  H   LIG d   1      10.567  16.399   7.936  0.00  0.00     0.165 HD
ENDROOT
BRANCH   3  10
ATOM     10  C   LIG d   1      11.858  19.248   4.597  0.00  0.00     0.292 C 
ATOM     11  O   LIG d   1      12.825  19.189   3.850  0.00  0.00    -0.259 OA
BRANCH  10  12
ATOM     12  O   LIG d   1      11.127  20.377   4.799  0.00  0.00    -0.316 OA
BRANCH  12  13
ATOM     13  C   LIG d   1      11.144  21.293   3.691  0.00  0.00     0.206 C 
BRANCH  13  14
ATOM     14  C   LIG d   1      10.900  22.721   4.197  0.00  0.00     0.261 C 
BRANCH  14  15
ATOM     15  N   LIG d   1      10.312  23.639   3.145  0.00  0.00    -0.069 N 
ATOM     16  C   LIG d   1      10.728  25.077   3.343  0.00  0.00     0.270 C 
ATOM     17  H   LIG d   1       9.288  23.605   3.207  0.00  0.00     0.279 HD
BRANCH  15  18
ATOM     18  C   LIG d   1      10.672  23.134   1.757  0.00  0.00     0.273 C 
BRANCH  18  19
ATOM     19  C   LIG d   1       9.582  23.292   0.733  0.00  0.00    -0.033 A 
ATOM     20  C   LIG d   1       8.273  22.881   1.034  0.00  0.00     0.009 A 
ATOM     21  C   LIG d   1       7.250  23.037   0.099  0.00  0.00     0.001 A 
ATOM     22  C   LIG d   1       7.522  23.601  -1.145  0.00  0.00     0.000 A 
ATOM     23  C   LIG d   1       8.816  24.017  -1.454  0.00  0.00     0.001 A 
ATOM     24  C   LIG d   1       9.842  23.868  -0.520  0.00  0.00     0.009 A 
ENDBRANCH  18  19
ENDBRANCH  15  18
ENDBRANCH  14  15
ENDBRANCH  13  14
ENDBRANCH  12  13
ENDBRANCH  10  12
ENDBRANCH   3  10
BRANCH   2  25
ATOM     25  C   LIG d   1       9.376  17.923   3.454  0.00  0.00    -0.042 A 
ATOM     26  C   LIG d   1       9.448  18.145   2.070  0.00  0.00     0.044 A 
ATOM     27  C   LIG d   1       8.403  18.816   1.419  0.00  0.00     0.103 A 
ATOM     28  C   LIG d   1       7.286  19.276   2.126  0.00  0.00     0.036 A 
ATOM     29  C   LIG d   1       7.209  19.049   3.499  0.00  0.00     0.003 A 
ATOM     30  C   LIG d   1       8.242  18.375   4.156  0.00  0.00     0.008 A 
BRANCH  27  31
ATOM     31  N   LIG d   1       8.497  19.071  -0.018  0.00  0.00    -0.116 N 
ATOM     32  O   LIG d   1       7.579  19.710  -0.549  0.00  0.00    -0.532 OA
ATOM     33  O   LIG d   1       9.464  18.579  -0.617  0.00  0.00    -0.532 OA
ENDBRANCH  27  31
ENDBRANCH   2  25
BRANCH   4  34
ATOM     34  C   LIG d   1       9.452  14.854   3.829  0.00  0.00     0.291 C 
ATOM     35  O   LIG d   1      10.143  14.106   3.155  0.00  0.00    -0.260 OA
BRANCH  34  36
ATOM     36  O   LIG d   1       8.096  14.898   3.841  0.00  0.00    -0.323 OA
ATOM     37  C   LIG d   1       7.500  14.897   2.543  0.00  0.00     0.213 C 
ENDBRANCH  34  36
ENDBRANCH   4  34
TORSDOF 11
ENDMDL
MODEL 5
REMARK VINA RESULT:      -6.5     25.942     30.377
REMARK  11 active torsions:
REMARK  status: ('A' for Active; 'I' for Inactive)
REMARK    1  A    between atoms: O_1  and  C_16 
REMARK    2  A    between atoms: O_1  and  C_23 
REMARK    3  A    between atoms: O_2  and  C_20 
REMARK    4  A    between atoms: N_8  and  C_22 
REMARK    5  A    between atoms: N_8  and  C_26 
REMARK    6  A    between atoms: N_9  and  C_24 
REMARK    7  A    between atoms: C_10  and  C_13 
REMARK    8  A    between atoms: C_11  and  C_16 
REMARK    9  A    between atoms: C_12  and  C_20 
REMARK   10  A    between atoms: C_22  and  C_23 
REMARK   11  A    between atoms: C_26  and  C_28 
ROOT
ATOM      1  N   LIG d   1      26.801  -3.447  24.176  0.00  0.00    -0.362 N 
ATOM      2  C   LIG d   1      23.976  -3.431  24.151  0.00  0.00     0.101 C 
ATOM      3  C   LIG d   1      24.826  -2.676  23.125  0.00  0.00     0.052 C 
ATOM      4  C   LIG d   1      24.793  -4.332  25.063  0.00  0.00     0.052 C 
ATOM      5  C   LIG d   1      26.178  -2.718  23.173  0.00  0.00     0.018 C 
ATOM      6  C   LIG d   1      26.143  -4.289  25.060  0.00  0.00     0.018 C 
ATOM      7  C   LIG d   1      27.097  -2.060  22.176  0.00  0.00     0.069 C 
ATOM      8  C   LIG d   1      27.015  -5.146  25.945  0.00  0.00     0.069 C 
ATOM      9  H   LIG d   1      27.818  -3.515  24.146  0.00  0.00     0.165 HD
ENDROOT
BRANCH   3  10
ATOM     10  C   LIG d   1      24.031  -1.925  22.130  0.00  0.00     0.292 C 
ATOM     11  O   LIG d   1      23.994  -0.704  22.064  0.00  0.00    -0.259 OA
BRANCH  10  12
ATOM     12  O   LIG d   1      23.533  -2.749  21.168  0.00  0.00    -0.316 OA
BRANCH  12  13
ATOM     13  C   LIG d   1      23.921  -2.391  19.831  0.00  0.00     0.206 C 
BRANCH  13  14
ATOM     14  C   LIG d   1      25.093  -3.272  19.379  0.00  0.00     0.261 C 
BRANCH  14  15
ATOM     15  N   LIG d   1      25.231  -3.364  17.873  0.00  0.00    -0.069 N 
ATOM     16  C   LIG d   1      25.636  -4.746  17.419  0.00  0.00     0.270 C 
ATOM     17  H   LIG d   1      25.962  -2.713  17.564  0.00  0.00     0.279 HD
BRANCH  15  18
ATOM     18  C   LIG d   1      23.943  -2.906  17.207  0.00  0.00     0.273 C 
BRANCH  18  19
ATOM     19  C   LIG d   1      24.113  -1.771  16.235  0.00  0.00    -0.033 A 
ATOM     20  C   LIG d   1      23.683  -0.481  16.582  0.00  0.00     0.009 A 
ATOM     21  C   LIG d   1      23.849   0.583  15.696  0.00  0.00     0.001 A 
ATOM     22  C   LIG d   1      24.444   0.371  14.455  0.00  0.00     0.000 A 
ATOM     23  C   LIG d   1      24.881  -0.904  14.100  0.00  0.00     0.001 A 
ATOM     24  C   LIG d   1      24.721  -1.971  14.986  0.00  0.00     0.009 A 
ENDBRANCH  18  19
ENDBRANCH  15  18
ENDBRANCH  14  15
ENDBRANCH  13  14
ENDBRANCH  12  13
ENDBRANCH  10  12
ENDBRANCH   3  10
BRANCH   2  25
ATOM     25  C   LIG d   1      23.127  -2.453  24.981  0.00  0.00    -0.042 A 
ATOM     26  C   LIG d   1      23.752  -1.448  25.736  0.00  0.00     0.044 A 
ATOM     27  C   LIG d   1      22.972  -0.545  26.471  0.00  0.00     0.103 A 
ATOM     28  C   LIG d   1      21.574  -0.629  26.472  0.00  0.00     0.036 A 
ATOM     29  C   LIG d   1      20.952  -1.621  25.717  0.00  0.00     0.003 A 
ATOM     30  C   LIG d   1      21.720  -2.522  24.974  0.00  0.00     0.008 A 
BRANCH  27  31
ATOM     31  N   LIG d   1      23.629   0.481  27.279  0.00  0.00    -0.116 N 
ATOM     32  O   LIG d   1      23.327   0.549  28.478  0.00  0.00    -0.532 OA
ATOM     33  O   LIG d   1      24.404   1.251  26.692  0.00  0.00    -0.532 OA
ENDBRANCH  27  31
ENDBRANCH   2  25
BRANCH   4  34
ATOM     34  C   LIG d   1      24.046  -5.237  25.966  0.00  0.00     0.291 C 
ATOM     35  O   LIG d   1      23.952  -5.090  27.173  0.00  0.00    -0.260 OA
BRANCH  34  36
ATOM     36  O   LIG d   1      23.499  -6.241  25.235  0.00  0.00    -0.323 OA
ATOM     37  C   LIG d   1      24.332  -7.395  25.113  0.00  0.00     0.213 C 
ENDBRANCH  34  36
ENDBRANCH   4  34
TORSDOF 11
ENDMDL
MODEL 6
REMARK VINA RESULT:      -6.5     26.273     30.305
REMARK  11 active torsions:
REMARK  status: ('A' for Active; 'I' for Inactive)
REMARK    1  A    between atoms: O_1  and  C_16 
REMARK    2  A    between atoms: O_1  and  C_23 
REMARK    3  A    between atoms: O_2  and  C_20 
REMARK    4  A    between atoms: N_8  and  C_22 
REMARK    5  A    between atoms: N_8  and  C_26 
REMARK    6  A    between atoms: N_9  and  C_24 
REMARK    7  A    between atoms: C_10  and  C_13 
REMARK    8  A    between atoms: C_11  and  C_16 
REMARK    9  A    between atoms: C_12  and  C_20 
REMARK   10  A    between atoms: C_22  and  C_23 
REMARK   11  A    between atoms: C_26  and  C_28 
ROOT
ATOM      1  N   LIG d   1      28.267  -3.903  20.088  0.00  0.00    -0.362 N 
ATOM      2  C   LIG d   1      25.910  -2.982  21.344  0.00  0.00     0.101 C 
ATOM      3  C   LIG d   1      26.139  -4.448  20.967  0.00  0.00     0.052 C 
ATOM      4  C   LIG d   1      27.141  -2.111  21.147  0.00  0.00     0.052 C 
ATOM      5  C   LIG d   1      27.288  -4.844  20.371  0.00  0.00     0.018 C 
ATOM      6  C   LIG d   1      28.239  -2.584  20.518  0.00  0.00     0.018 C 
ATOM      7  C   LIG d   1      27.629  -6.268  20.017  0.00  0.00     0.069 C 
ATOM      8  C   LIG d   1      29.489  -1.773  20.280  0.00  0.00     0.069 C 
ATOM      9  H   LIG d   1      29.148  -4.241  19.702  0.00  0.00     0.165 HD
ENDROOT
BRANCH   3  10
ATOM     10  C   LIG d   1      25.005  -5.334  21.305  0.00  0.00     0.292 C 
ATOM     11  O   LIG d   1      24.114  -5.635  20.524  0.00  0.00    -0.259 OA
BRANCH  10  12
ATOM     12  O   LIG d   1      25.194  -5.945  22.507  0.00  0.00    -0.316 OA
BRANCH  12  13
ATOM     13  C   LIG d   1      25.136  -5.055  23.633  0.00  0.00     0.206 C 
BRANCH  13  14
ATOM     14  C   LIG d   1      24.134  -5.591  24.665  0.00  0.00     0.261 C 
BRANCH  14  15
ATOM     15  N   LIG d   1      23.816  -4.598  25.765  0.00  0.00    -0.069 N 
ATOM     16  C   LIG d   1      24.323  -5.056  27.113  0.00  0.00     0.270 C 
ATOM     17  H   LIG d   1      22.797  -4.498  25.840  0.00  0.00     0.279 HD
BRANCH  15  18
ATOM     18  C   LIG d   1      24.354  -3.225  25.396  0.00  0.00     0.273 C 
BRANCH  18  19
ATOM     19  C   LIG d   1      23.301  -2.231  24.990  0.00  0.00    -0.033 A 
ATOM     20  C   LIG d   1      21.947  -2.602  24.996  0.00  0.00     0.009 A 
ATOM     21  C   LIG d   1      20.961  -1.684  24.637  0.00  0.00     0.001 A 
ATOM     22  C   LIG d   1      21.314  -0.389  24.266  0.00  0.00     0.000 A 
ATOM     23  C   LIG d   1      22.654  -0.007  24.261  0.00  0.00     0.001 A 
ATOM     24  C   LIG d   1      23.645  -0.920  24.625  0.00  0.00     0.009 A 
ENDBRANCH  18  19
ENDBRANCH  15  18
ENDBRANCH  14  15
ENDBRANCH  13  14
ENDBRANCH  12  13
ENDBRANCH  10  12
ENDBRANCH   3  10
BRANCH   2  25
ATOM     25  C   LIG d   1      24.712  -2.401  20.575  0.00  0.00    -0.042 A 
ATOM     26  C   LIG d   1      24.773  -2.266  19.178  0.00  0.00     0.044 A 
ATOM     27  C   LIG d   1      23.669  -1.759  18.481  0.00  0.00     0.103 A 
ATOM     28  C   LIG d   1      22.501  -1.377  19.151  0.00  0.00     0.036 A 
ATOM     29  C   LIG d   1      22.435  -1.517  20.536  0.00  0.00     0.003 A 
ATOM     30  C   LIG d   1      23.528  -2.028  21.241  0.00  0.00     0.008 A 
BRANCH  27  31
ATOM     31  N   LIG d   1      23.749  -1.593  17.030  0.00  0.00    -0.116 N 
ATOM     32  O   LIG d   1      22.911  -2.185  16.337  0.00  0.00    -0.532 OA
ATOM     33  O   LIG d   1      24.688  -0.913  16.590  0.00  0.00    -0.532 OA
ENDBRANCH  27  31
ENDBRANCH   2  25
BRANCH   4  34
ATOM     34  C   LIG d   1      27.074  -0.721  21.653  0.00  0.00     0.291 C 
ATOM     35  O   LIG d   1      27.151  -0.405  22.829  0.00  0.00    -0.260 OA
BRANCH  34  36
ATOM     36  O   LIG d   1      26.913   0.126  20.604  0.00  0.00    -0.323 OA
ATOM     37  C   LIG d   1      25.834   1.049  20.761  0.00  0.00     0.213 C 
ENDBRANCH  34  36
ENDBRANCH   4  34
TORSDOF 11
ENDMDL
MODEL 7
REMARK VINA RESULT:      -6.4     29.542     32.940
REMARK  11 active torsions:
REMARK  status: ('A' for Active; 'I' for Inactive)
REMARK    1  A    between atoms: O_1  and  C_16 
REMARK    2  A    between atoms: O_1  and  C_23 
REMARK    3  A    between atoms: O_2  and  C_20 
REMARK    4  A    between atoms: N_8  and  C_22 
REMARK    5  A    between atoms: N_8  and  C_26 
REMARK    6  A    between atoms: N_9  and  C_24 
REMARK    7  A    between atoms: C_10  and  C_13 
REMARK    8  A    between atoms: C_11  and  C_16 
REMARK    9  A    between atoms: C_12  and  C_20 
REMARK   10  A    between atoms: C_22  and  C_23 
REMARK   11  A    between atoms: C_26  and  C_28 
ROOT
ATOM      1  N   LIG d   1      27.169  -3.064  25.023  0.00  0.00    -0.362 N 
ATOM      2  C   LIG d   1      24.368  -3.428  24.937  0.00  0.00     0.101 C 
ATOM      3  C   LIG d   1      25.265  -3.548  23.702  0.00  0.00     0.052 C 
ATOM      4  C   LIG d   1      25.147  -3.280  26.235  0.00  0.00     0.052 C 
ATOM      5  C   LIG d   1      26.604  -3.371  23.793  0.00  0.00     0.018 C 
ATOM      6  C   LIG d   1      26.483  -3.082  26.229  0.00  0.00     0.018 C 
ATOM      7  C   LIG d   1      27.573  -3.527  22.650  0.00  0.00     0.069 C 
ATOM      8  C   LIG d   1      27.316  -2.917  27.476  0.00  0.00     0.069 C 
ATOM      9  H   LIG d   1      28.185  -3.004  25.072  0.00  0.00     0.165 HD
ENDROOT
BRANCH   3  10
ATOM     10  C   LIG d   1      24.529  -3.856  22.458  0.00  0.00     0.292 C 
ATOM     11  O   LIG d   1      24.116  -3.007  21.680  0.00  0.00    -0.259 OA
BRANCH  10  12
ATOM     12  O   LIG d   1      24.564  -5.186  22.176  0.00  0.00    -0.316 OA
BRANCH  12  13
ATOM     13  C   LIG d   1      24.952  -5.490  20.826  0.00  0.00     0.206 C 
BRANCH  13  14
ATOM     14  C   LIG d   1      26.034  -6.578  20.831  0.00  0.00     0.261 C 
BRANCH  14  15
ATOM     15  N   LIG d   1      25.940  -7.513  22.019  0.00  0.00    -0.069 N 
ATOM     16  C   LIG d   1      25.835  -8.961  21.600  0.00  0.00     0.270 C 
ATOM     17  H   LIG d   1      25.095  -7.288  22.556  0.00  0.00     0.279 HD
BRANCH  15  18
ATOM     18  C   LIG d   1      27.115  -7.281  22.955  0.00  0.00     0.273 C 
BRANCH  18  19
ATOM     19  C   LIG d   1      26.738  -7.119  24.402  0.00  0.00    -0.033 A 
ATOM     20  C   LIG d   1      27.730  -6.859  25.360  0.00  0.00     0.009 A 
ATOM     21  C   LIG d   1      27.391  -6.690  26.702  0.00  0.00     0.001 A 
ATOM     22  C   LIG d   1      26.060  -6.783  27.102  0.00  0.00     0.000 A 
ATOM     23  C   LIG d   1      25.065  -7.035  26.160  0.00  0.00     0.001 A 
ATOM     24  C   LIG d   1      25.399  -7.199  24.815  0.00  0.00     0.009 A 
ENDBRANCH  18  19
ENDBRANCH  15  18
ENDBRANCH  14  15
ENDBRANCH  13  14
ENDBRANCH  12  13
ENDBRANCH  10  12
ENDBRANCH   3  10
BRANCH   2  25
ATOM     25  C   LIG d   1      23.368  -2.271  24.775  0.00  0.00    -0.042 A 
ATOM     26  C   LIG d   1      23.836  -0.966  24.551  0.00  0.00     0.044 A 
ATOM     27  C   LIG d   1      22.919   0.080  24.380  0.00  0.00     0.103 A 
ATOM     28  C   LIG d   1      21.539  -0.150  24.432  0.00  0.00     0.036 A 
ATOM     29  C   LIG d   1      21.073  -1.445  24.647  0.00  0.00     0.003 A 
ATOM     30  C   LIG d   1      21.978  -2.497  24.812  0.00  0.00     0.008 A 
BRANCH  27  31
ATOM     31  N   LIG d   1      23.412   1.442  24.176  0.00  0.00    -0.116 N 
ATOM     32  O   LIG d   1      24.469   1.583  23.547  0.00  0.00    -0.532 OA
ATOM     33  O   LIG d   1      22.763   2.361  24.697  0.00  0.00    -0.532 OA
ENDBRANCH  27  31
ENDBRANCH   2  25
BRANCH   4  34
ATOM     34  C   LIG d   1      24.376  -3.338  27.498  0.00  0.00     0.291 C 
ATOM     35  O   LIG d   1      24.129  -4.361  28.114  0.00  0.00    -0.260 OA
BRANCH  34  36
ATOM     36  O   LIG d   1      23.995  -2.082  27.844  0.00  0.00    -0.323 OA
ATOM     37  C   LIG d   1      24.226  -1.759  29.216  0.00  0.00     0.213 C 
ENDBRANCH  34  36
ENDBRANCH   4  34
TORSDOF 11
ENDMDL
MODEL 8
REMARK VINA RESULT:      -6.4     22.375     25.930
REMARK  11 active torsions:
REMARK  status: ('A' for Active; 'I' for Inactive)
REMARK    1  A    between atoms: O_1  and  C_16 
REMARK    2  A    between atoms: O_1  and  C_23 
REMARK    3  A    between atoms: O_2  and  C_20 
REMARK    4  A    between atoms: N_8  and  C_22 
REMARK    5  A    between atoms: N_8  and  C_26 
REMARK    6  A    between atoms: N_9  and  C_24 
REMARK    7  A    between atoms: C_10  and  C_13 
REMARK    8  A    between atoms: C_11  and  C_16 
REMARK    9  A    between atoms: C_12  and  C_20 
REMARK   10  A    between atoms: C_22  and  C_23 
REMARK   11  A    between atoms: C_26  and  C_28 
ROOT
ATOM      1  N   LIG d   1      10.898  17.793   8.111  0.00  0.00    -0.362 N 
ATOM      2  C   LIG d   1      10.744  17.290   5.335  0.00  0.00     0.101 C 
ATOM      3  C   LIG d   1      11.676  18.341   5.944  0.00  0.00     0.052 C 
ATOM      4  C   LIG d   1      10.053  16.423   6.376  0.00  0.00     0.052 C 
ATOM      5  C   LIG d   1      11.720  18.544   7.282  0.00  0.00     0.018 C 
ATOM      6  C   LIG d   1      10.132  16.715   7.692  0.00  0.00     0.018 C 
ATOM      7  C   LIG d   1      12.643  19.509   7.978  0.00  0.00     0.069 C 
ATOM      8  C   LIG d   1       9.464  15.905   8.776  0.00  0.00     0.069 C 
ATOM      9  H   LIG d   1      11.002  17.920   9.117  0.00  0.00     0.165 HD
ENDROOT
BRANCH   3  10
ATOM     10  C   LIG d   1      12.476  19.080   4.944  0.00  0.00     0.292 C 
ATOM     11  O   LIG d   1      13.356  18.574   4.262  0.00  0.00    -0.259 OA
BRANCH  10  12
ATOM     12  O   LIG d   1      11.966  20.321   4.719  0.00  0.00    -0.316 OA
BRANCH  12  13
ATOM     13  C   LIG d   1      12.904  21.389   4.931  0.00  0.00     0.206 C 
BRANCH  13  14
ATOM     14  C   LIG d   1      12.284  22.720   4.485  0.00  0.00     0.261 C 
BRANCH  14  15
ATOM     15  N   LIG d   1      11.173  22.554   3.468  0.00  0.00    -0.069 N 
ATOM     16  C   LIG d   1       9.945  23.357   3.826  0.00  0.00     0.270 C 
ATOM     17  H   LIG d   1      10.894  21.567   3.436  0.00  0.00     0.279 HD
BRANCH  15  18
ATOM     18  C   LIG d   1      11.687  22.898   2.079  0.00  0.00     0.273 C 
BRANCH  18  19
ATOM     19  C   LIG d   1      10.666  22.757   0.984  0.00  0.00    -0.033 A 
ATOM     20  C   LIG d   1      10.254  23.888   0.261  0.00  0.00     0.009 A 
ATOM     21  C   LIG d   1       9.319  23.768  -0.767  0.00  0.00     0.001 A 
ATOM     22  C   LIG d   1       8.785  22.521  -1.083  0.00  0.00     0.000 A 
ATOM     23  C   LIG d   1       9.190  21.390  -0.376  0.00  0.00     0.001 A 
ATOM     24  C   LIG d   1      10.129  21.504   0.650  0.00  0.00     0.009 A 
ENDBRANCH  18  19
ENDBRANCH  15  18
ENDBRANCH  14  15
ENDBRANCH  13  14
ENDBRANCH  12  13
ENDBRANCH  10  12
ENDBRANCH   3  10
BRANCH   2  25
ATOM     25  C   LIG d   1       9.707  17.950   4.411  0.00  0.00    -0.042 A 
ATOM     26  C   LIG d   1       9.762  17.730   3.025  0.00  0.00     0.044 A 
ATOM     27  C   LIG d   1       8.799  18.315   2.191  0.00  0.00     0.103 A 
ATOM     28  C   LIG d   1       7.782  19.122   2.714  0.00  0.00     0.036 A 
ATOM     29  C   LIG d   1       7.722  19.336   4.090  0.00  0.00     0.003 A 
ATOM     30  C   LIG d   1       8.673  18.752   4.931  0.00  0.00     0.008 A 
BRANCH  27  31
ATOM     31  N   LIG d   1       8.877  18.106   0.746  0.00  0.00    -0.116 N 
ATOM     32  O   LIG d   1       7.830  18.207   0.093  0.00  0.00    -0.532 OA
ATOM     33  O   LIG d   1       9.981  17.787   0.280  0.00  0.00    -0.532 OA
ENDBRANCH  27  31
ENDBRANCH   2  25
BRANCH   4  34
ATOM     34  C   LIG d   1       9.275  15.264   5.882  0.00  0.00     0.291 C 
ATOM     35  O   LIG d   1       8.065  15.258   5.721  0.00  0.00    -0.260 OA
BRANCH  34  36
ATOM     36  O   LIG d   1      10.120  14.229   5.647  0.00  0.00    -0.323 OA
ATOM     37  C   LIG d   1       9.493  13.084   5.067  0.00  0.00     0.213 C 
ENDBRANCH  34  36
ENDBRANCH   4  34
TORSDOF 11
ENDMDL
MODEL 9
REMARK VINA RESULT:      -6.3     23.165     26.609
REMARK  11 active torsions:
REMARK  status: ('A' for Active; 'I' for Inactive)
REMARK    1  A    between atoms: O_1  and  C_16 
REMARK    2  A    between atoms: O_1  and  C_23 
REMARK    3  A    between atoms: O_2  and  C_20 
REMARK    4  A    between atoms: N_8  and  C_22 
REMARK    5  A    between atoms: N_8  and  C_26 
REMARK    6  A    between atoms: N_9  and  C_24 
REMARK    7  A    between atoms: C_10  and  C_13 
REMARK    8  A    between atoms: C_11  and  C_16 
REMARK    9  A    between atoms: C_12  and  C_20 
REMARK   10  A    between atoms: C_22  and  C_23 
REMARK   11  A    between atoms: C_26  and  C_28 
ROOT
ATOM      1  N   LIG d   1       9.194  17.778   5.637  0.00  0.00    -0.362 N 
ATOM      2  C   LIG d   1       9.727  18.006   2.872  0.00  0.00     0.101 C 
ATOM      3  C   LIG d   1      10.424  18.864   3.932  0.00  0.00     0.052 C 
ATOM      4  C   LIG d   1       8.865  16.902   3.463  0.00  0.00     0.052 C 
ATOM      5  C   LIG d   1      10.141  18.715   5.247  0.00  0.00     0.018 C 
ATOM      6  C   LIG d   1       8.615  16.845   4.789  0.00  0.00     0.018 C 
ATOM      7  C   LIG d   1      10.815  19.466   6.365  0.00  0.00     0.069 C 
ATOM      8  C   LIG d   1       7.762  15.784   5.441  0.00  0.00     0.069 C 
ATOM      9  H   LIG d   1       9.052  17.640   6.637  0.00  0.00     0.165 HD
ENDROOT
BRANCH   3  10
ATOM     10  C   LIG d   1      11.390  19.833   3.373  0.00  0.00     0.292 C 
ATOM     11  O   LIG d   1      12.403  19.518   2.766  0.00  0.00    -0.259 OA
BRANCH  10  12
ATOM     12  O   LIG d   1      10.903  21.103   3.422  0.00  0.00    -0.316 OA
BRANCH  12  13
ATOM     13  C   LIG d   1      11.125  21.863   2.222  0.00  0.00     0.206 C 
BRANCH  13  14
ATOM     14  C   LIG d   1      11.192  23.358   2.561  0.00  0.00     0.261 C 
BRANCH  14  15
ATOM     15  N   LIG d   1       9.835  24.031   2.579  0.00  0.00    -0.069 N 
ATOM     16  C   LIG d   1       9.558  24.726   3.891  0.00  0.00     0.270 C 
ATOM     17  H   LIG d   1       9.106  23.319   2.451  0.00  0.00     0.279 HD
BRANCH  15  18
ATOM     18  C   LIG d   1       9.713  24.983   1.400  0.00  0.00     0.273 C 
BRANCH  18  19
ATOM     19  C   LIG d   1       8.860  24.473   0.271  0.00  0.00    -0.033 A 
ATOM     20  C   LIG d   1       9.462  23.867  -0.843  0.00  0.00     0.009 A 
ATOM     21  C   LIG d   1       8.681  23.375  -1.889  0.00  0.00     0.001 A 
ATOM     22  C   LIG d   1       7.293  23.485  -1.835  0.00  0.00     0.000 A 
ATOM     23  C   LIG d   1       6.684  24.080  -0.732  0.00  0.00     0.001 A 
ATOM     24  C   LIG d   1       7.461  24.568   0.320  0.00  0.00     0.009 A 
ENDBRANCH  18  19
ENDBRANCH  15  18
ENDBRANCH  14  15
ENDBRANCH  13  14
ENDBRANCH  12  13
ENDBRANCH  10  12
ENDBRANCH   3  10
BRANCH   2  25
ATOM     25  C   LIG d   1       8.898  18.884   1.919  0.00  0.00    -0.042 A 
ATOM     26  C   LIG d   1       7.831  19.648   2.419  0.00  0.00     0.044 A 
ATOM     27  C   LIG d   1       7.095  20.465   1.551  0.00  0.00     0.103 A 
ATOM     28  C   LIG d   1       7.400  20.532   0.186  0.00  0.00     0.036 A 
ATOM     29  C   LIG d   1       8.463  19.780  -0.311  0.00  0.00     0.003 A 
ATOM     30  C   LIG d   1       9.208  18.967   0.548  0.00  0.00     0.008 A 
BRANCH  27  31
ATOM     31  N   LIG d   1       5.967  21.236   2.071  0.00  0.00    -0.116 N 
ATOM     32  O   LIG d   1       5.984  21.543   3.270  0.00  0.00    -0.532 OA
ATOM     33  O   LIG d   1       5.041  21.483   1.284  0.00  0.00    -0.532 OA
ENDBRANCH  27  31
ENDBRANCH   2  25
BRANCH   4  34
ATOM     34  C   LIG d   1       8.295  15.911   2.521  0.00  0.00     0.291 C 
ATOM     35  O   LIG d   1       7.107  15.790   2.276  0.00  0.00    -0.260 OA
BRANCH  34  36
ATOM     36  O   LIG d   1       9.303  15.172   1.992  0.00  0.00    -0.323 OA
ATOM     37  C   LIG d   1       9.976  14.340   2.937  0.00  0.00     0.213 C 
ENDBRANCH  34  36
ENDBRANCH   4  34
TORSDOF 11
ENDMDL
