REMARK  10 active torsions:
REMARK  status: ('A' for Active; 'I' for Inactive)
REMARK       I    between atoms: N_6  and  C_20 
REMARK    1  A    between atoms: N_6  and  C_21 
REMARK    2  A    between atoms: N_6  and  C_24 
REMARK    3  A    between atoms: N_7  and  C_14 
REMARK    4  A    between atoms: N_7  and  C_22 
REMARK    5  A    between atoms: N_9  and  C_35 
REMARK    6  A    between atoms: C_12  and  C_14 
REMARK    7  A    between atoms: C_15  and  C_20 
REMARK    8  A    between atoms: C_21  and  C_23 
REMARK    9  A    between atoms: C_23  and  C_31 
REMARK   10  A    between atoms: C_30  and  C_35 
ROOT
ATOM      1  N   LIG d   1       1.763  18.044  -9.817  0.00  0.00    -0.337 N 
ATOM      2  N   LIG d   1       3.551  16.751 -10.039  0.00  0.00    -0.232 NA
ATOM      3  C   LIG d   1       1.745  17.203  -8.729  0.00  0.00     0.064 A 
ATOM      4  C   LIG d   1       2.836  17.702 -10.611  0.00  0.00     0.120 A 
ATOM      5  C   LIG d   1       2.897  16.432  -8.874  0.00  0.00     0.086 A 
ATOM      6  C   LIG d   1       2.365  15.308  -6.803  0.00  0.00     0.035 A 
ATOM      7  C   LIG d   1       3.238  15.493  -7.889  0.00  0.00     0.051 A 
ATOM      8  C   LIG d   1       0.873  17.058  -7.644  0.00  0.00     0.033 A 
ATOM      9  C   LIG d   1       1.206  16.091  -6.689  0.00  0.00     0.019 A 
ATOM     10  C   LIG d   1       0.841  19.124 -10.068  0.00  0.00     0.158 C 
ENDROOT
BRANCH   4  11
ATOM     11  C   LIG d   1       3.157  18.346 -11.929  0.00  0.00     0.171 C 
BRANCH  11  12
ATOM     12  N   LIG d   1       4.377  19.150 -11.884  0.00  0.00    -0.286 NA
ATOM     13  H   LIG d   1       4.493  19.631 -12.779  0.00  0.00     0.128 HD
BRANCH  12  14
ATOM     14  C   LIG d   1       4.576  20.019 -10.804  0.00  0.00     0.008 A 
ATOM     15  C   LIG d   1       5.611  19.861  -9.874  0.00  0.00     0.024 A 
ATOM     16  C   LIG d   1       5.825  20.801  -8.856  0.00  0.00     0.017 A 
ATOM     17  C   LIG d   1       5.018  21.939  -8.765  0.00  0.00     0.009 A 
ATOM     18  C   LIG d   1       4.017  22.136  -9.719  0.00  0.00     0.017 A 
ATOM     19  C   LIG d   1       3.810  21.191 -10.730  0.00  0.00     0.024 A 
BRANCH  17  20
ATOM     20  C   LIG d   1       5.216  22.925  -7.675  0.00  0.00     0.123 C 
ATOM     21  N   LIG d   1       4.485  22.827  -6.585  0.00  0.00    -0.284 NA
ATOM     22  H   LIG d   1       4.670  23.539  -5.868  0.00  0.00     0.188 HD
BRANCH  20  23
ATOM     23  N   LIG d   1       6.083  23.858  -7.742  0.00  0.00    -0.384 N 
ATOM     24  H   LIG d   1       5.835  24.680  -8.280  0.00  0.00     0.157 HD
ATOM     25  H   LIG d   1       6.961  23.812  -7.241  0.00  0.00     0.157 HD
ENDBRANCH  20  23
ENDBRANCH  17  20
ENDBRANCH  12  14
ENDBRANCH  11  12
ENDBRANCH   4  11
BRANCH   6  26
ATOM     26  C   LIG d   1       2.689  14.376  -5.682  0.00  0.00     0.259 C 
ATOM     27  O   LIG d   1       2.726  13.173  -5.965  0.00  0.00    -0.267 OA
ATOM     28  N   LIG d   1       2.829  14.856  -4.372  0.00  0.00    -0.298 N 
BRANCH  28  29
ATOM     29  C   LIG d   1       2.680  13.876  -3.282  0.00  0.00     0.144 C 
BRANCH  29  30
ATOM     30  C   LIG d   1       3.961  13.669  -2.482  0.00  0.00     0.133 C 
BRANCH  30  31
ATOM     31  C   LIG d   1       4.751  12.439  -2.898  0.00  0.00     0.174 C 
ATOM     32  O   LIG d   1       4.097  11.359  -2.899  0.00  0.00    -0.648 OA
ATOM     33  O   LIG d   1       5.955  12.638  -3.223  0.00  0.00    -0.648 OA
ENDBRANCH  30  31
ENDBRANCH  29  30
ENDBRANCH  28  29
BRANCH  28  34
ATOM     34  C   LIG d   1       3.432  16.117  -4.086  0.00  0.00     0.132 A 
ATOM     35  N   LIG d   1       2.895  16.874  -3.096  0.00  0.00    -0.243 NA
ATOM     36  C   LIG d   1       3.456  18.075  -2.831  0.00  0.00     0.119 A 
ATOM     37  C   LIG d   1       4.543  18.588  -3.510  0.00  0.00     0.019 A 
ATOM     38  C   LIG d   1       5.091  17.817  -4.521  0.00  0.00     0.005 A 
ATOM     39  C   LIG d   1       4.531  16.573  -4.812  0.00  0.00     0.051 A 
ENDBRANCH  28  34
ENDBRANCH   6  26
TORSDOF 10
