MODEL 1
REMARK VINA RESULT:      -5.0      0.000      0.000
REMARK  1 active torsions:
REMARK  status: ('A' for Active; 'I' for Inactive)
REMARK    1  A    between atoms: C_3  and  C_7 
ROOT
ATOM      1  N   LIG d   1      19.519   4.132  -5.985  0.00  0.00    -0.067 N 
ATOM      2  C   LIG d   1      19.595   5.604  -6.362  0.00  0.00     0.222 C 
ATOM      3  C   LIG d   1      18.382   5.747  -7.286  0.00  0.00     0.040 C 
ATOM      4  C   LIG d   1      17.360   4.709  -6.831  0.00  0.00     0.030 C 
ATOM      5  C   LIG d   1      18.059   3.811  -5.824  0.00  0.00     0.235 C 
ATOM      6  C   LIG d   1      20.373   3.680  -4.843  0.00  0.00     0.270 C 
ATOM      7  H   LIG d   1      19.846   3.613  -6.810  0.00  0.00     0.280 HD
ENDROOT
BRANCH   2   8
ATOM      8  C   LIG d   1      19.657   6.564  -5.200  0.00  0.00    -0.010 A 
ATOM      9  C   LIG d   1      18.507   6.817  -4.434  0.00  0.00     0.012 A 
ATOM     10  C   LIG d   1      18.550   7.725  -3.379  0.00  0.00     0.020 A 
ATOM     11  C   LIG d   1      19.745   8.368  -3.118  0.00  0.00     0.116 A 
ATOM     12  N   LIG d   1      20.869   8.157  -3.832  0.00  0.00    -0.273 NA
ATOM     13  C   LIG d   1      20.807   7.261  -4.839  0.00  0.00     0.125 A 
ENDBRANCH   2   8
TORSDOF 1
ENDMDL
MODEL 2
REMARK VINA RESULT:      -5.0      1.373      4.181
REMARK  1 active torsions:
REMARK  status: ('A' for Active; 'I' for Inactive)
REMARK    1  A    between atoms: C_3  and  C_7 
ROOT
ATOM      1  N   LIG d   1      20.250   6.051  -3.066  0.00  0.00    -0.067 N 
ATOM      2  C   LIG d   1      18.837   6.388  -3.519  0.00  0.00     0.222 C 
ATOM      3  C   LIG d   1      18.781   7.895  -3.254  0.00  0.00     0.040 C 
ATOM      4  C   LIG d   1      20.208   8.418  -3.394  0.00  0.00     0.030 C 
ATOM      5  C   LIG d   1      21.117   7.203  -3.491  0.00  0.00     0.235 C 
ATOM      6  C   LIG d   1      20.784   4.709  -3.455  0.00  0.00     0.270 C 
ATOM      7  H   LIG d   1      20.227   6.063  -2.039  0.00  0.00     0.280 HD
ENDROOT
BRANCH   2   8
ATOM      8  C   LIG d   1      18.488   5.950  -4.920  0.00  0.00    -0.010 A 
ATOM      9  C   LIG d   1      18.934   6.696  -6.022  0.00  0.00     0.012 A 
ATOM     10  C   LIG d   1      18.590   6.314  -7.317  0.00  0.00     0.020 A 
ATOM     11  C   LIG d   1      17.798   5.194  -7.479  0.00  0.00     0.116 A 
ATOM     12  N   LIG d   1      17.344   4.453  -6.447  0.00  0.00    -0.273 NA
ATOM     13  C   LIG d   1      17.705   4.834  -5.204  0.00  0.00     0.125 A 
ENDBRANCH   2   8
TORSDOF 1
ENDMDL
MODEL 3
REMARK VINA RESULT:      -4.8     25.558     26.744
REMARK  1 active torsions:
REMARK  status: ('A' for Active; 'I' for Inactive)
REMARK    1  A    between atoms: C_3  and  C_7 
ROOT
ATOM      1  N   LIG d   1       7.846  28.124 -11.897  0.00  0.00    -0.067 N 
ATOM      2  C   LIG d   1       7.183  26.956 -12.613  0.00  0.00     0.222 C 
ATOM      3  C   LIG d   1       6.992  25.960 -11.466  0.00  0.00     0.040 C 
ATOM      4  C   LIG d   1       6.842  26.786 -10.190  0.00  0.00     0.030 C 
ATOM      5  C   LIG d   1       7.188  28.222 -10.549  0.00  0.00     0.235 C 
ATOM      6  C   LIG d   1       7.915  29.421 -12.639  0.00  0.00     0.270 C 
ATOM      7  H   LIG d   1       8.818  27.836 -11.730  0.00  0.00     0.280 HD
ENDROOT
BRANCH   2   8
ATOM      8  C   LIG d   1       5.944  27.302 -13.400  0.00  0.00    -0.010 A 
ATOM      9  C   LIG d   1       6.025  27.505 -14.787  0.00  0.00     0.012 A 
ATOM     10  C   LIG d   1       4.890  27.854 -15.516  0.00  0.00     0.020 A 
ATOM     11  C   LIG d   1       3.697  28.000 -14.836  0.00  0.00     0.116 A 
ATOM     12  N   LIG d   1       3.577  27.819 -13.505  0.00  0.00    -0.273 NA
ATOM     13  C   LIG d   1       4.687  27.466 -12.824  0.00  0.00     0.125 A 
ENDBRANCH   2   8
TORSDOF 1
ENDMDL
MODEL 4
REMARK VINA RESULT:      -4.7     25.745     26.944
REMARK  1 active torsions:
REMARK  status: ('A' for Active; 'I' for Inactive)
REMARK    1  A    between atoms: C_3  and  C_7 
ROOT
ATOM      1  N   LIG d   1       6.549  29.892 -14.040  0.00  0.00    -0.067 N 
ATOM      2  C   LIG d   1       7.563  28.810 -13.700  0.00  0.00     0.222 C 
ATOM      3  C   LIG d   1       8.881  29.583 -13.795  0.00  0.00     0.040 C 
ATOM      4  C   LIG d   1       8.562  31.036 -13.449  0.00  0.00     0.030 C 
ATOM      5  C   LIG d   1       7.048  31.156 -13.398  0.00  0.00     0.235 C 
ATOM      6  C   LIG d   1       5.112  29.588 -13.753  0.00  0.00     0.270 C 
ATOM      7  H   LIG d   1       6.615  30.031 -15.056  0.00  0.00     0.280 HD
ENDROOT
BRANCH   2   8
ATOM      8  C   LIG d   1       7.317  28.081 -12.403  0.00  0.00    -0.010 A 
ATOM      9  C   LIG d   1       6.960  26.723 -12.416  0.00  0.00     0.012 A 
ATOM     10  C   LIG d   1       6.702  26.051 -11.223  0.00  0.00     0.020 A 
ATOM     11  C   LIG d   1       6.802  26.758 -10.040  0.00  0.00     0.116 A 
ATOM     12  N   LIG d   1       7.137  28.063  -9.984  0.00  0.00    -0.273 NA
ATOM     13  C   LIG d   1       7.397  28.688 -11.152  0.00  0.00     0.125 A 
ENDBRANCH   2   8
TORSDOF 1
ENDMDL
MODEL 5
REMARK VINA RESULT:      -4.6      7.208      8.703
REMARK  1 active torsions:
REMARK  status: ('A' for Active; 'I' for Inactive)
REMARK    1  A    between atoms: C_3  and  C_7 
ROOT
ATOM      1  N   LIG d   1      14.285  -1.689  -5.190  0.00  0.00    -0.067 N 
ATOM      2  C   LIG d   1      14.372  -0.807  -6.428  0.00  0.00     0.222 C 
ATOM      3  C   LIG d   1      14.023   0.568  -5.850  0.00  0.00     0.040 C 
ATOM      4  C   LIG d   1      14.472   0.556  -4.391  0.00  0.00     0.030 C 
ATOM      5  C   LIG d   1      14.844  -0.878  -4.054  0.00  0.00     0.235 C 
ATOM      6  C   LIG d   1      14.859  -3.066  -5.299  0.00  0.00     0.270 C 
ATOM      7  H   LIG d   1      13.282  -1.810  -5.000  0.00  0.00     0.280 HD
ENDROOT
BRANCH   2   8
ATOM      8  C   LIG d   1      15.669  -0.893  -7.191  0.00  0.00    -0.010 A 
ATOM      9  C   LIG d   1      15.744  -1.658  -8.366  0.00  0.00     0.012 A 
ATOM     10  C   LIG d   1      16.948  -1.767  -9.061  0.00  0.00     0.020 A 
ATOM     11  C   LIG d   1      18.054  -1.111  -8.557  0.00  0.00     0.116 A 
ATOM     12  N   LIG d   1      18.025  -0.370  -7.429  0.00  0.00    -0.273 NA
ATOM     13  C   LIG d   1      16.844  -0.268  -6.784  0.00  0.00     0.125 A 
ENDBRANCH   2   8
TORSDOF 1
ENDMDL
MODEL 6
REMARK VINA RESULT:      -4.6     18.286     19.439
REMARK  1 active torsions:
REMARK  status: ('A' for Active; 'I' for Inactive)
REMARK    1  A    between atoms: C_3  and  C_7 
ROOT
ATOM      1  N   LIG d   1      -0.156  11.117  -1.606  0.00  0.00    -0.067 N 
ATOM      2  C   LIG d   1       1.139  10.429  -2.012  0.00  0.00     0.222 C 
ATOM      3  C   LIG d   1       1.038   9.108  -1.243  0.00  0.00     0.040 C 
ATOM      4  C   LIG d   1      -0.450   8.802  -1.092  0.00  0.00     0.030 C 
ATOM      5  C   LIG d   1      -1.204  10.042  -1.542  0.00  0.00     0.235 C 
ATOM      6  C   LIG d   1      -0.561  12.319  -2.399  0.00  0.00     0.270 C 
ATOM      7  H   LIG d   1      -0.011  11.445  -0.643  0.00  0.00     0.280 HD
ENDROOT
BRANCH   2   8
ATOM      8  C   LIG d   1       1.370  10.313  -3.497  0.00  0.00    -0.010 A 
ATOM      9  C   LIG d   1       1.108   9.102  -4.157  0.00  0.00     0.012 A 
ATOM     10  C   LIG d   1       1.347   8.978  -5.525  0.00  0.00     0.020 A 
ATOM     11  C   LIG d   1       1.851  10.072  -6.201  0.00  0.00     0.116 A 
ATOM     12  N   LIG d   1       2.121  11.251  -5.604  0.00  0.00    -0.273 NA
ATOM     13  C   LIG d   1       1.866  11.351  -4.282  0.00  0.00     0.125 A 
ENDBRANCH   2   8
TORSDOF 1
ENDMDL
MODEL 7
REMARK VINA RESULT:      -4.5      8.908     10.282
REMARK  1 active torsions:
REMARK  status: ('A' for Active; 'I' for Inactive)
REMARK    1  A    between atoms: C_3  and  C_7 
ROOT
ATOM      1  N   LIG d   1      14.515  -2.431  -7.578  0.00  0.00    -0.067 N 
ATOM      2  C   LIG d   1      13.874  -2.487  -6.199  0.00  0.00     0.222 C 
ATOM      3  C   LIG d   1      12.862  -3.622  -6.375  0.00  0.00     0.040 C 
ATOM      4  C   LIG d   1      13.437  -4.559  -7.435  0.00  0.00     0.030 C 
ATOM      5  C   LIG d   1      14.637  -3.855  -8.045  0.00  0.00     0.235 C 
ATOM      6  C   LIG d   1      15.774  -1.635  -7.708  0.00  0.00     0.270 C 
ATOM      7  H   LIG d   1      13.825  -1.979  -8.191  0.00  0.00     0.280 HD
ENDROOT
BRANCH   2   8
ATOM      8  C   LIG d   1      14.837  -2.633  -5.047  0.00  0.00    -0.010 A 
ATOM      9  C   LIG d   1      15.495  -3.854  -4.830  0.00  0.00     0.012 A 
ATOM     10  C   LIG d   1      16.362  -4.005  -3.750  0.00  0.00     0.020 A 
ATOM     11  C   LIG d   1      16.546  -2.928  -2.905  0.00  0.00     0.116 A 
ATOM     12  N   LIG d   1      15.929  -1.740  -3.074  0.00  0.00    -0.273 NA
ATOM     13  C   LIG d   1      15.107  -1.614  -4.136  0.00  0.00     0.125 A 
ENDBRANCH   2   8
TORSDOF 1
ENDMDL
MODEL 8
REMARK VINA RESULT:      -4.5      1.525      2.412
REMARK  1 active torsions:
REMARK  status: ('A' for Active; 'I' for Inactive)
REMARK    1  A    between atoms: C_3  and  C_7 
ROOT
ATOM      1  N   LIG d   1      18.031   6.176  -6.573  0.00  0.00    -0.067 N 
ATOM      2  C   LIG d   1      18.077   6.357  -5.062  0.00  0.00     0.222 C 
ATOM      3  C   LIG d   1      17.317   5.117  -4.582  0.00  0.00     0.040 C 
ATOM      4  C   LIG d   1      17.534   4.034  -5.636  0.00  0.00     0.030 C 
ATOM      5  C   LIG d   1      18.198   4.704  -6.827  0.00  0.00     0.235 C 
ATOM      6  C   LIG d   1      18.938   7.043  -7.386  0.00  0.00     0.270 C 
ATOM      7  H   LIG d   1      17.073   6.417  -6.856  0.00  0.00     0.280 HD
ENDROOT
BRANCH   2   8
ATOM      8  C   LIG d   1      19.453   6.555  -4.478  0.00  0.00    -0.010 A 
ATOM      9  C   LIG d   1      20.160   5.461  -3.955  0.00  0.00     0.012 A 
ATOM     10  C   LIG d   1      21.419   5.642  -3.387  0.00  0.00     0.020 A 
ATOM     11  C   LIG d   1      21.940   6.920  -3.348  0.00  0.00     0.116 A 
ATOM     12  N   LIG d   1      21.292   7.999  -3.835  0.00  0.00    -0.273 NA
ATOM     13  C   LIG d   1      20.081   7.795  -4.395  0.00  0.00     0.125 A 
ENDBRANCH   2   8
TORSDOF 1
ENDMDL
MODEL 9
REMARK VINA RESULT:      -4.5     28.103     29.274
REMARK  1 active torsions:
REMARK  status: ('A' for Active; 'I' for Inactive)
REMARK    1  A    between atoms: C_3  and  C_7 
ROOT
ATOM      1  N   LIG d   1       7.497   0.943  21.292  0.00  0.00    -0.067 N 
ATOM      2  C   LIG d   1       8.402   0.244  20.287  0.00  0.00     0.222 C 
ATOM      3  C   LIG d   1       9.772   0.388  20.956  0.00  0.00     0.040 C 
ATOM      4  C   LIG d   1       9.521   0.444  22.461  0.00  0.00     0.030 C 
ATOM      5  C   LIG d   1       8.020   0.582  22.654  0.00  0.00     0.235 C 
ATOM      6  C   LIG d   1       6.024   0.743  21.130  0.00  0.00     0.270 C 
ATOM      7  H   LIG d   1       7.665   1.950  21.169  0.00  0.00     0.280 HD
ENDROOT
BRANCH   2   8
ATOM      8  C   LIG d   1       7.991  -1.159  19.917  0.00  0.00    -0.010 A 
ATOM      9  C   LIG d   1       8.523  -2.254  20.615  0.00  0.00     0.012 A 
ATOM     10  C   LIG d   1       8.171  -3.555  20.259  0.00  0.00     0.020 A 
ATOM     11  C   LIG d   1       7.298  -3.729  19.204  0.00  0.00     0.116 A 
ATOM     12  N   LIG d   1       6.769  -2.704  18.504  0.00  0.00    -0.273 NA
ATOM     13  C   LIG d   1       7.112  -1.454  18.879  0.00  0.00     0.125 A 
ENDBRANCH   2   8
TORSDOF 1
ENDMDL
