MODEL 1
REMARK VINA RESULT:      -5.0      0.000      0.000
REMARK  1 active torsions:
REMARK  status: ('A' for Active; 'I' for Inactive)
REMARK    1  A    between atoms: C_3  and  C_7 
ROOT
ATOM      1  N   LIG d   1       5.116  27.084 -11.633  0.00  0.00    -0.067 N 
ATOM      2  C   LIG d   1       5.756  27.793 -10.448  0.00  0.00     0.222 C 
ATOM      3  C   LIG d   1       6.737  26.728  -9.947  0.00  0.00     0.040 C 
ATOM      4  C   LIG d   1       7.133  25.892 -11.162  0.00  0.00     0.030 C 
ATOM      5  C   LIG d   1       6.212  26.300 -12.299  0.00  0.00     0.235 C 
ATOM      6  C   LIG d   1       4.310  27.926 -12.570  0.00  0.00     0.270 C 
ATOM      7  H   LIG d   1       4.464  26.398 -11.232  0.00  0.00     0.280 HD
ENDROOT
BRANCH   2   8
ATOM      8  C   LIG d   1       6.348  29.147 -10.749  0.00  0.00    -0.010 A 
ATOM      9  C   LIG d   1       7.547  29.245 -11.472  0.00  0.00     0.012 A 
ATOM     10  C   LIG d   1       8.115  30.491 -11.729  0.00  0.00     0.020 A 
ATOM     11  C   LIG d   1       7.471  31.614 -11.247  0.00  0.00     0.116 A 
ATOM     12  N   LIG d   1       6.321  31.563 -10.543  0.00  0.00    -0.273 NA
ATOM     13  C   LIG d   1       5.782  30.345 -10.323  0.00  0.00     0.125 A 
ENDBRANCH   2   8
TORSDOF 1
ENDMDL
MODEL 2
REMARK VINA RESULT:      -4.9      2.034      4.079
REMARK  1 active torsions:
REMARK  status: ('A' for Active; 'I' for Inactive)
REMARK    1  A    between atoms: C_3  and  C_7 
ROOT
ATOM      1  N   LIG d   1       6.376  29.562 -14.101  0.00  0.00    -0.067 N 
ATOM      2  C   LIG d   1       7.455  28.548 -13.748  0.00  0.00     0.222 C 
ATOM      3  C   LIG d   1       8.725  29.394 -13.881  0.00  0.00     0.040 C 
ATOM      4  C   LIG d   1       8.327  30.834 -13.568  0.00  0.00     0.030 C 
ATOM      5  C   LIG d   1       6.809  30.868 -13.499  0.00  0.00     0.235 C 
ATOM      6  C   LIG d   1       4.963  29.183 -13.787  0.00  0.00     0.270 C 
ATOM      7  H   LIG d   1       6.421  29.677 -15.122  0.00  0.00     0.280 HD
ENDROOT
BRANCH   2   8
ATOM      8  C   LIG d   1       7.268  27.840 -12.430  0.00  0.00    -0.010 A 
ATOM      9  C   LIG d   1       6.937  26.477 -12.404  0.00  0.00     0.012 A 
ATOM     10  C   LIG d   1       6.733  25.823 -11.190  0.00  0.00     0.020 A 
ATOM     11  C   LIG d   1       6.859  26.555 -10.026  0.00  0.00     0.116 A 
ATOM     12  N   LIG d   1       7.171  27.867 -10.007  0.00  0.00    -0.273 NA
ATOM     13  C   LIG d   1       7.379  28.474 -11.194  0.00  0.00     0.125 A 
ENDBRANCH   2   8
TORSDOF 1
ENDMDL
MODEL 3
REMARK VINA RESULT:      -4.9      1.934      4.159
REMARK  1 active torsions:
REMARK  status: ('A' for Active; 'I' for Inactive)
REMARK    1  A    between atoms: C_3  and  C_7 
ROOT
ATOM      1  N   LIG d   1       7.619  27.982 -11.778  0.00  0.00    -0.067 N 
ATOM      2  C   LIG d   1       6.925  26.840 -12.504  0.00  0.00     0.222 C 
ATOM      3  C   LIG d   1       6.755  25.817 -11.377  0.00  0.00     0.040 C 
ATOM      4  C   LIG d   1       6.649  26.612 -10.077  0.00  0.00     0.030 C 
ATOM      5  C   LIG d   1       7.000  28.053 -10.410  0.00  0.00     0.235 C 
ATOM      6  C   LIG d   1       7.682  29.297 -12.488  0.00  0.00     0.270 C 
ATOM      7  H   LIG d   1       8.593  27.682 -11.645  0.00  0.00     0.280 HD
ENDROOT
BRANCH   2   8
ATOM      8  C   LIG d   1       5.668  27.217 -13.248  0.00  0.00    -0.010 A 
ATOM      9  C   LIG d   1       4.447  27.313 -12.562  0.00  0.00     0.012 A 
ATOM     10  C   LIG d   1       3.277  27.632 -13.247  0.00  0.00     0.020 A 
ATOM     11  C   LIG d   1       3.355  27.841 -14.610  0.00  0.00     0.116 A 
ATOM     12  N   LIG d   1       4.506  27.753 -15.308  0.00  0.00    -0.273 NA
ATOM     13  C   LIG d   1       5.629  27.459 -14.618  0.00  0.00     0.125 A 
ENDBRANCH   2   8
TORSDOF 1
ENDMDL
MODEL 4
REMARK VINA RESULT:      -4.6     25.344     26.299
REMARK  1 active torsions:
REMARK  status: ('A' for Active; 'I' for Inactive)
REMARK    1  A    between atoms: C_3  and  C_7 
ROOT
ATOM      1  N   LIG d   1      21.283   8.921  -0.044  0.00  0.00    -0.067 N 
ATOM      2  C   LIG d   1      21.372   9.280  -1.520  0.00  0.00     0.222 C 
ATOM      3  C   LIG d   1      19.950   9.774  -1.802  0.00  0.00     0.040 C 
ATOM      4  C   LIG d   1      19.418  10.346  -0.490  0.00  0.00     0.030 C 
ATOM      5  C   LIG d   1      20.413   9.967   0.594  0.00  0.00     0.235 C 
ATOM      6  C   LIG d   1      22.574   8.680   0.672  0.00  0.00     0.270 C 
ATOM      7  H   LIG d   1      20.762   8.036  -0.000  0.00  0.00     0.280 HD
ENDROOT
BRANCH   2   8
ATOM      8  C   LIG d   1      22.485  10.229  -1.887  0.00  0.00    -0.010 A 
ATOM      9  C   LIG d   1      22.324  11.610  -1.697  0.00  0.00     0.012 A 
ATOM     10  C   LIG d   1      23.337  12.495  -2.061  0.00  0.00     0.020 A 
ATOM     11  C   LIG d   1      24.490  11.975  -2.617  0.00  0.00     0.116 A 
ATOM     12  N   LIG d   1      24.682  10.655  -2.822  0.00  0.00    -0.273 NA
ATOM     13  C   LIG d   1      23.693   9.818  -2.446  0.00  0.00     0.125 A 
ENDBRANCH   2   8
TORSDOF 1
ENDMDL
MODEL 5
REMARK VINA RESULT:      -4.6     19.431     21.198
REMARK  1 active torsions:
REMARK  status: ('A' for Active; 'I' for Inactive)
REMARK    1  A    between atoms: C_3  and  C_7 
ROOT
ATOM      1  N   LIG d   1       0.011  10.918  -1.495  0.00  0.00    -0.067 N 
ATOM      2  C   LIG d   1       1.304  10.266  -1.962  0.00  0.00     0.222 C 
ATOM      3  C   LIG d   1       1.269   8.937  -1.202  0.00  0.00     0.040 C 
ATOM      4  C   LIG d   1      -0.204   8.592  -0.990  0.00  0.00     0.030 C 
ATOM      5  C   LIG d   1      -1.007   9.817  -1.396  0.00  0.00     0.235 C 
ATOM      6  C   LIG d   1      -0.457  12.116  -2.260  0.00  0.00     0.270 C 
ATOM      7  H   LIG d   1       0.189  11.242  -0.536  0.00  0.00     0.280 HD
ENDROOT
BRANCH   2   8
ATOM      8  C   LIG d   1       1.473  10.167  -3.457  0.00  0.00    -0.010 A 
ATOM      9  C   LIG d   1       0.982   9.048  -4.148  0.00  0.00     0.012 A 
ATOM     10  C   LIG d   1       1.161   8.937  -5.526  0.00  0.00     0.020 A 
ATOM     11  C   LIG d   1       1.837   9.948  -6.181  0.00  0.00     0.116 A 
ATOM     12  N   LIG d   1       2.328  11.036  -5.553  0.00  0.00    -0.273 NA
ATOM     13  C   LIG d   1       2.128  11.129  -4.222  0.00  0.00     0.125 A 
ENDBRANCH   2   8
TORSDOF 1
ENDMDL
MODEL 6
REMARK VINA RESULT:      -4.5      2.183      3.654
REMARK  1 active torsions:
REMARK  status: ('A' for Active; 'I' for Inactive)
REMARK    1  A    between atoms: C_3  and  C_7 
ROOT
ATOM      1  N   LIG d   1       6.751  28.943 -10.420  0.00  0.00    -0.067 N 
ATOM      2  C   LIG d   1       7.372  27.874 -11.307  0.00  0.00     0.222 C 
ATOM      3  C   LIG d   1       7.044  26.598 -10.525  0.00  0.00     0.040 C 
ATOM      4  C   LIG d   1       5.754  26.875  -9.757  0.00  0.00     0.030 C 
ATOM      5  C   LIG d   1       5.470  28.362  -9.890  0.00  0.00     0.235 C 
ATOM      6  C   LIG d   1       6.604  30.310 -11.010  0.00  0.00     0.270 C 
ATOM      7  H   LIG d   1       7.384  29.044  -9.616  0.00  0.00     0.280 HD
ENDROOT
BRANCH   2   8
ATOM      8  C   LIG d   1       6.930  27.896 -12.749  0.00  0.00    -0.010 A 
ATOM      9  C   LIG d   1       6.040  26.922 -13.228  0.00  0.00     0.012 A 
ATOM     10  C   LIG d   1       5.651  26.918 -14.566  0.00  0.00     0.020 A 
ATOM     11  C   LIG d   1       6.171  27.890 -15.399  0.00  0.00     0.116 A 
ATOM     12  N   LIG d   1       7.032  28.840 -14.981  0.00  0.00    -0.273 NA
ATOM     13  C   LIG d   1       7.380  28.832 -13.677  0.00  0.00     0.125 A 
ENDBRANCH   2   8
TORSDOF 1
ENDMDL
MODEL 7
REMARK VINA RESULT:      -4.5     47.361     48.814
REMARK  1 active torsions:
REMARK  status: ('A' for Active; 'I' for Inactive)
REMARK    1  A    between atoms: C_3  and  C_7 
ROOT
ATOM      1  N   LIG d   1       7.700  -4.623  26.294  0.00  0.00    -0.067 N 
ATOM      2  C   LIG d   1       7.760  -3.741  25.055  0.00  0.00     0.222 C 
ATOM      3  C   LIG d   1       9.121  -3.060  25.229  0.00  0.00     0.040 C 
ATOM      4  C   LIG d   1       9.998  -4.031  26.016  0.00  0.00     0.030 C 
ATOM      5  C   LIG d   1       9.092  -5.147  26.508  0.00  0.00     0.235 C 
ATOM      6  C   LIG d   1       6.638  -5.677  26.323  0.00  0.00     0.270 C 
ATOM      7  H   LIG d   1       7.498  -3.992  27.079  0.00  0.00     0.280 HD
ENDROOT
BRANCH   2   8
ATOM      8  C   LIG d   1       7.541  -4.454  23.744  0.00  0.00    -0.010 A 
ATOM      9  C   LIG d   1       8.619  -5.069  23.089  0.00  0.00     0.012 A 
ATOM     10  C   LIG d   1       8.430  -5.704  21.863  0.00  0.00     0.020 A 
ATOM     11  C   LIG d   1       7.162  -5.702  21.316  0.00  0.00     0.116 A 
ATOM     12  N   LIG d   1       6.100  -5.118  21.910  0.00  0.00    -0.273 NA
ATOM     13  C   LIG d   1       6.306  -4.524  23.104  0.00  0.00     0.125 A 
ENDBRANCH   2   8
TORSDOF 1
ENDMDL
MODEL 8
REMARK VINA RESULT:      -4.3     54.281     56.709
REMARK  1 active torsions:
REMARK  status: ('A' for Active; 'I' for Inactive)
REMARK    1  A    between atoms: C_3  and  C_7 
ROOT
ATOM      1  N   LIG d   1       1.602 -23.468   7.613  0.00  0.00    -0.067 N 
ATOM      2  C   LIG d   1       3.099 -23.735   7.681  0.00  0.00     0.222 C 
ATOM      3  C   LIG d   1       3.670 -22.320   7.556  0.00  0.00     0.040 C 
ATOM      4  C   LIG d   1       2.624 -21.373   8.141  0.00  0.00     0.030 C 
ATOM      5  C   LIG d   1       1.366 -22.193   8.373  0.00  0.00     0.235 C 
ATOM      6  C   LIG d   1       0.695 -24.590   8.007  0.00  0.00     0.270 C 
ATOM      7  H   LIG d   1       1.397 -23.265   6.627  0.00  0.00     0.280 HD
ENDROOT
BRANCH   2   8
ATOM      8  C   LIG d   1       3.558 -24.530   8.878  0.00  0.00    -0.010 A 
ATOM      9  C   LIG d   1       3.366 -24.024  10.174  0.00  0.00     0.012 A 
ATOM     10  C   LIG d   1       3.814 -24.738  11.283  0.00  0.00     0.020 A 
ATOM     11  C   LIG d   1       4.454 -25.944  11.068  0.00  0.00     0.116 A 
ATOM     12  N   LIG d   1       4.663 -26.462   9.840  0.00  0.00    -0.273 NA
ATOM     13  C   LIG d   1       4.205 -25.759   8.783  0.00  0.00     0.125 A 
ENDBRANCH   2   8
TORSDOF 1
ENDMDL
MODEL 9
REMARK VINA RESULT:      -4.3     48.480     50.438
REMARK  1 active torsions:
REMARK  status: ('A' for Active; 'I' for Inactive)
REMARK    1  A    between atoms: C_3  and  C_7 
ROOT
ATOM      1  N   LIG d   1      23.477  -0.883  25.657  0.00  0.00    -0.067 N 
ATOM      2  C   LIG d   1      22.819  -1.988  24.843  0.00  0.00     0.222 C 
ATOM      3  C   LIG d   1      21.942  -1.180  23.882  0.00  0.00     0.040 C 
ATOM      4  C   LIG d   1      22.638   0.164  23.680  0.00  0.00     0.030 C 
ATOM      5  C   LIG d   1      23.766   0.235  24.696  0.00  0.00     0.235 C 
ATOM      6  C   LIG d   1      24.644  -1.274  26.508  0.00  0.00     0.270 C 
ATOM      7  H   LIG d   1      22.754  -0.539  26.301  0.00  0.00     0.280 HD
ENDROOT
BRANCH   2   8
ATOM      8  C   LIG d   1      23.767  -2.971  24.204  0.00  0.00    -0.010 A 
ATOM      9  C   LIG d   1      23.993  -4.221  24.803  0.00  0.00     0.012 A 
ATOM     10  C   LIG d   1      24.891  -5.122  24.234  0.00  0.00     0.020 A 
ATOM     11  C   LIG d   1      25.549  -4.748  23.079  0.00  0.00     0.116 A 
ATOM     12  N   LIG d   1      25.365  -3.555  22.476  0.00  0.00    -0.273 NA
ATOM     13  C   LIG d   1      24.478  -2.706  23.037  0.00  0.00     0.125 A 
ENDBRANCH   2   8
TORSDOF 1
ENDMDL
