REMARK  13 active torsions:
REMARK  status: ('A' for Active; 'I' for Inactive)
REMARK    1  A    between atoms: O_4  and  C_21 
REMARK    2  A    between atoms: O_4  and  C_27 
REMARK    3  A    between atoms: O_5  and  C_43 
REMARK    4  A    between atoms: N_7  and  C_19 
REMARK    5  A    between atoms: N_9  and  C_33 
REMARK    6  A    between atoms: N_10  and  C_39 
REMARK    7  A    between atoms: N_12  and  C_40 
REMARK    8  A    between atoms: N_13  and  C_44 
REMARK    9  A    between atoms: C_15  and  C_19 
REMARK   10  A    between atoms: C_15  and  C_20 
REMARK   11  A    between atoms: C_17  and  C_21 
REMARK   12  A    between atoms: C_40  and  C_45 
REMARK   13  A    between atoms: C_40  and  C_43 
ROOT
ATOM      1  F   LIG d   1      10.852 -11.363   1.149  0.00  0.00    -0.204 F 
ATOM      2  F   LIG d   1       7.869 -14.759   2.435  0.00  0.00    -0.204 F 
ATOM      3  C   LIG d   1       8.542 -10.829   1.300  0.00  0.00     0.032 A 
ATOM      4  C   LIG d   1       9.593 -11.751   1.400  0.00  0.00     0.141 A 
ATOM      5  C   LIG d   1       7.249 -11.277   1.643  0.00  0.00     0.003 A 
ATOM      6  C   LIG d   1       9.375 -13.076   1.764  0.00  0.00     0.059 A 
ATOM      7  C   LIG d   1       7.024 -12.599   2.031  0.00  0.00     0.030 A 
ATOM      8  C   LIG d   1       8.088 -13.489   2.075  0.00  0.00     0.142 A 
ENDROOT
BRANCH   3   9
ATOM      9  C   LIG d   1       8.781  -9.373   0.902  0.00  0.00     0.136 C 
ATOM     10  O   LIG d   1       7.489  -8.777   0.573  0.00  0.00    -0.353 OA
ATOM     11  C   LIG d   1       7.356  -8.783  -0.856  0.00  0.00     0.145 C 
ATOM     12  C   LIG d   1       8.729  -8.372  -1.334  0.00  0.00     0.063 C 
ATOM     13  C   LIG d   1       9.612  -9.192  -0.402  0.00  0.00     0.039 C 
BRANCH  12  14
ATOM     14  C   LIG d   1       8.872  -6.859  -1.155  0.00  0.00     0.151 C 
BRANCH  14  15
ATOM     15  O   LIG d   1      10.231  -6.479  -0.939  0.00  0.00    -0.331 OA
BRANCH  15  16
ATOM     16  C   LIG d   1      10.513  -6.120   0.356  0.00  0.00     0.094 A 
ATOM     17  C   LIG d   1       9.654  -5.433   1.204  0.00  0.00     0.026 A 
ATOM     18  C   LIG d   1      10.050  -5.091   2.502  0.00  0.00     0.019 A 
ATOM     19  C   LIG d   1      11.317  -5.402   3.016  0.00  0.00     0.056 A 
ATOM     20  C   LIG d   1      12.147  -6.142   2.154  0.00  0.00     0.019 A 
ATOM     21  C   LIG d   1      11.760  -6.490   0.846  0.00  0.00     0.026 A 
BRANCH  19  22
ATOM     22  N   LIG d   1      11.692  -5.053   4.329  0.00  0.00    -0.345 N 
ATOM     23  C   LIG d   1      11.846  -6.164   5.308  0.00  0.00     0.119 C 
ATOM     24  C   LIG d   1      12.019  -5.637   6.750  0.00  0.00     0.101 C 
ATOM     25  N   LIG d   1      13.160  -4.698   6.839  0.00  0.00    -0.249 NA
ATOM     26  C   LIG d   1      12.965  -3.550   5.927  0.00  0.00     0.101 C 
ATOM     27  C   LIG d   1      12.763  -4.023   4.473  0.00  0.00     0.119 C 
BRANCH  25  28
ATOM     28  C   LIG d   1      13.507  -4.265   8.129  0.00  0.00     0.037 A 
ATOM     29  C   LIG d   1      14.327  -3.167   8.383  0.00  0.00     0.013 A 
ATOM     30  C   LIG d   1      14.615  -2.762   9.693  0.00  0.00     0.019 A 
ATOM     31  C   LIG d   1      14.088  -3.434  10.801  0.00  0.00     0.070 A 
ATOM     32  C   LIG d   1      13.298  -4.565  10.547  0.00  0.00     0.019 A 
ATOM     33  C   LIG d   1      13.019  -4.972   9.234  0.00  0.00     0.013 A 
BRANCH  31  34
ATOM     34  N   LIG d   1      14.312  -2.965  12.118  0.00  0.00    -0.240 N 
ATOM     35  C   LIG d   1      15.143  -1.929  12.520  0.00  0.00     0.352 A 
ATOM     36  O   LIG d   1      15.915  -1.264  11.843  0.00  0.00    -0.244 OA
ATOM     37  N   LIG d   1      14.932  -1.798  13.902  0.00  0.00    -0.200 N 
ATOM     38  N   LIG d   1      14.059  -2.771  14.340  0.00  0.00    -0.144 NA
ATOM     39  C   LIG d   1      13.737  -3.405  13.258  0.00  0.00     0.207 A 
BRANCH  37  40
ATOM     40  C   LIG d   1      15.682  -0.983  14.860  0.00  0.00     0.137 C 
BRANCH  40  41
ATOM     41  C   LIG d   1      16.072   0.376  14.243  0.00  0.00     0.027 C 
ATOM     42  C   LIG d   1      17.561   0.676  14.355  0.00  0.00     0.002 C 
ENDBRANCH  40  41
BRANCH  40  43
ATOM     43  C   LIG d   1      14.985  -0.793  16.239  0.00  0.00     0.133 C 
ATOM     44  C   LIG d   1      15.408  -1.814  17.291  0.00  0.00     0.034 C 
BRANCH  43  45
ATOM     45  O   LIG d   1      13.563  -0.752  16.119  0.00  0.00    -0.383 OA
ATOM     46  H   LIG d   1      13.305  -1.163  15.278  0.00  0.00     0.210 HD
ENDBRANCH  43  45
ENDBRANCH  40  43
ENDBRANCH  37  40
ENDBRANCH  31  34
ENDBRANCH  25  28
ENDBRANCH  19  22
ENDBRANCH  15  16
ENDBRANCH  14  15
ENDBRANCH  12  14
BRANCH   9  47
ATOM     47  C   LIG d   1       9.436  -8.577   2.055  0.00  0.00     0.161 C 
BRANCH  47  48
ATOM     48  N   LIG d   1       8.521  -8.180   3.105  0.00  0.00    -0.228 N 
ATOM     49  N   LIG d   1       8.637  -8.669   4.354  0.00  0.00    -0.145 NA
ATOM     50  C   LIG d   1       7.634  -8.040   4.974  0.00  0.00     0.221 A 
ATOM     51  N   LIG d   1       6.929  -7.163   4.200  0.00  0.00    -0.201 NA
ATOM     52  C   LIG d   1       7.518  -7.264   3.031  0.00  0.00     0.197 A 
ENDBRANCH  47  48
ENDBRANCH   9  47
ENDBRANCH   3   9
TORSDOF 13
