MODEL 1
REMARK VINA RESULT:      -5.1      0.000      0.000
REMARK  2 active torsions:
REMARK  status: ('A' for Active; 'I' for Inactive)
REMARK    1  A    between atoms: O_1  and  C_9 
REMARK    2  A    between atoms: N_3  and  C_4 
REMARK       I    between atoms: N_3  and  C_10 
ROOT
ATOM      1  C   LIG d   1       5.876  26.598 -12.463  0.00  0.00     0.034 A 
ATOM      2  C   LIG d   1       6.938  25.813 -12.006  0.00  0.00     0.032 A 
ATOM      3  C   LIG d   1       5.192  27.409 -11.547  0.00  0.00     0.032 A 
ATOM      4  C   LIG d   1       7.313  25.836 -10.658  0.00  0.00     0.039 A 
ATOM      5  C   LIG d   1       5.565  27.434 -10.200  0.00  0.00     0.039 A 
ATOM      6  C   LIG d   1       6.622  26.648  -9.766  0.00  0.00     0.065 A 
ENDROOT
BRANCH   1   7
ATOM      7  N   LIG d   1       5.440  26.632 -13.803  0.00  0.00    -0.328 N 
ATOM      8  C   LIG d   1       5.991  27.349 -14.851  0.00  0.00     0.218 C 
ATOM      9  O   LIG d   1       6.966  28.090 -14.812  0.00  0.00    -0.274 OA
ATOM     10  C   LIG d   1       5.235  27.129 -16.137  0.00  0.00     0.117 C 
ATOM     11  H   LIG d   1       4.630  26.066 -14.019  0.00  0.00     0.169 HD
ENDBRANCH   1   7
BRANCH   6  12
ATOM     12  O   LIG d   1       6.954  26.700  -8.446  0.00  0.00    -0.361 OA
ATOM     13  H   LIG d   1       6.791  25.827  -8.052  0.00  0.00     0.217 HD
ENDBRANCH   6  12
TORSDOF 2
ENDMDL
MODEL 2
REMARK VINA RESULT:      -4.8      3.046      3.953
REMARK  2 active torsions:
REMARK  status: ('A' for Active; 'I' for Inactive)
REMARK    1  A    between atoms: O_1  and  C_9 
REMARK    2  A    between atoms: N_3  and  C_4 
REMARK       I    between atoms: N_3  and  C_10 
ROOT
ATOM      1  C   LIG d   1       6.750  28.263 -10.876  0.00  0.00     0.034 A 
ATOM      2  C   LIG d   1       7.230  27.897 -12.136  0.00  0.00     0.032 A 
ATOM      3  C   LIG d   1       6.774  27.317  -9.842  0.00  0.00     0.032 A 
ATOM      4  C   LIG d   1       7.728  26.609 -12.362  0.00  0.00     0.039 A 
ATOM      5  C   LIG d   1       7.271  26.030 -10.065  0.00  0.00     0.039 A 
ATOM      6  C   LIG d   1       7.744  25.686 -11.323  0.00  0.00     0.065 A 
ENDROOT
BRANCH   1   7
ATOM      7  N   LIG d   1       6.235  29.539 -10.569  0.00  0.00    -0.328 N 
ATOM      8  C   LIG d   1       4.907  29.928 -10.541  0.00  0.00     0.218 C 
ATOM      9  O   LIG d   1       3.926  29.234 -10.777  0.00  0.00    -0.274 OA
ATOM     10  C   LIG d   1       4.759  31.383 -10.173  0.00  0.00     0.117 C 
ATOM     11  H   LIG d   1       6.919  30.249 -10.343  0.00  0.00     0.169 HD
ENDBRANCH   1   7
BRANCH   6  12
ATOM     12  O   LIG d   1       8.220  24.422 -11.500  0.00  0.00    -0.361 OA
ATOM     13  H   LIG d   1       8.723  24.395 -12.331  0.00  0.00     0.217 HD
ENDBRANCH   6  12
TORSDOF 2
ENDMDL
MODEL 3
REMARK VINA RESULT:      -4.7     40.507     42.075
REMARK  2 active torsions:
REMARK  status: ('A' for Active; 'I' for Inactive)
REMARK    1  A    between atoms: O_1  and  C_9 
REMARK    2  A    between atoms: N_3  and  C_4 
REMARK       I    between atoms: N_3  and  C_10 
ROOT
ATOM      1  C   LIG d   1       7.079   0.157  20.428  0.00  0.00     0.034 A 
ATOM      2  C   LIG d   1       6.874   0.181  19.046  0.00  0.00     0.032 A 
ATOM      3  C   LIG d   1       6.204   0.877  21.254  0.00  0.00     0.032 A 
ATOM      4  C   LIG d   1       5.814   0.910  18.495  0.00  0.00     0.039 A 
ATOM      5  C   LIG d   1       5.145   1.606  20.706  0.00  0.00     0.039 A 
ATOM      6  C   LIG d   1       4.958   1.617  19.332  0.00  0.00     0.065 A 
ENDROOT
BRANCH   1   7
ATOM      7  N   LIG d   1       8.120  -0.554  21.059  0.00  0.00    -0.328 N 
ATOM      8  C   LIG d   1       9.358  -0.070  21.445  0.00  0.00     0.218 C 
ATOM      9  O   LIG d   1       9.782   1.072  21.312  0.00  0.00    -0.274 OA
ATOM     10  C   LIG d   1      10.203  -1.142  22.085  0.00  0.00     0.117 C 
ATOM     11  H   LIG d   1       7.937  -1.530  21.250  0.00  0.00     0.169 HD
ENDBRANCH   1   7
BRANCH   6  12
ATOM     12  O   LIG d   1       3.914   2.339  18.837  0.00  0.00    -0.361 OA
ATOM     13  H   LIG d   1       3.856   3.174  19.330  0.00  0.00     0.217 HD
ENDBRANCH   6  12
TORSDOF 2
ENDMDL
MODEL 4
REMARK VINA RESULT:      -4.7     24.553     25.256
REMARK  2 active torsions:
REMARK  status: ('A' for Active; 'I' for Inactive)
REMARK    1  A    between atoms: O_1  and  C_9 
REMARK    2  A    between atoms: N_3  and  C_4 
REMARK       I    between atoms: N_3  and  C_10 
ROOT
ATOM      1  C   LIG d   1      19.290   7.403  -3.100  0.00  0.00     0.034 A 
ATOM      2  C   LIG d   1      20.336   7.140  -3.988  0.00  0.00     0.032 A 
ATOM      3  C   LIG d   1      17.986   7.042  -3.464  0.00  0.00     0.032 A 
ATOM      4  C   LIG d   1      20.086   6.525  -5.220  0.00  0.00     0.039 A 
ATOM      5  C   LIG d   1      17.734   6.427  -4.694  0.00  0.00     0.039 A 
ATOM      6  C   LIG d   1      18.785   6.174  -5.562  0.00  0.00     0.065 A 
ENDROOT
BRANCH   1   7
ATOM      7  N   LIG d   1      19.460   8.017  -1.842  0.00  0.00    -0.328 N 
ATOM      8  C   LIG d   1      19.736   9.348  -1.583  0.00  0.00     0.218 C 
ATOM      9  O   LIG d   1      19.882  10.248  -2.402  0.00  0.00    -0.274 OA
ATOM     10  C   LIG d   1      19.852   9.618  -0.104  0.00  0.00     0.117 C 
ATOM     11  H   LIG d   1      19.369   7.409  -1.038  0.00  0.00     0.169 HD
ENDBRANCH   1   7
BRANCH   6  12
ATOM     12  O   LIG d   1      18.498   5.573  -6.751  0.00  0.00    -0.361 OA
ATOM     13  H   LIG d   1      19.184   4.909  -6.934  0.00  0.00     0.217 HD
ENDBRANCH   6  12
TORSDOF 2
ENDMDL
MODEL 5
REMARK VINA RESULT:      -4.7     41.313     42.350
REMARK  2 active torsions:
REMARK  status: ('A' for Active; 'I' for Inactive)
REMARK    1  A    between atoms: O_1  and  C_9 
REMARK    2  A    between atoms: N_3  and  C_4 
REMARK       I    between atoms: N_3  and  C_10 
ROOT
ATOM      1  C   LIG d   1       6.504   0.899  20.815  0.00  0.00     0.034 A 
ATOM      2  C   LIG d   1       6.310   0.977  19.434  0.00  0.00     0.032 A 
ATOM      3  C   LIG d   1       6.350  -0.340  21.451  0.00  0.00     0.032 A 
ATOM      4  C   LIG d   1       5.969  -0.163  18.697  0.00  0.00     0.039 A 
ATOM      5  C   LIG d   1       6.010  -1.480  20.718  0.00  0.00     0.039 A 
ATOM      6  C   LIG d   1       5.822  -1.382  19.347  0.00  0.00     0.065 A 
ENDROOT
BRANCH   1   7
ATOM      7  N   LIG d   1       6.851   1.999  21.626  0.00  0.00    -0.328 N 
ATOM      8  C   LIG d   1       8.122   2.435  21.957  0.00  0.00     0.218 C 
ATOM      9  O   LIG d   1       9.189   1.947  21.604  0.00  0.00    -0.274 OA
ATOM     10  C   LIG d   1       8.082   3.647  22.855  0.00  0.00     0.117 C 
ATOM     11  H   LIG d   1       6.078   2.528  22.009  0.00  0.00     0.169 HD
ENDBRANCH   1   7
BRANCH   6  12
ATOM     12  O   LIG d   1       5.491  -2.517  18.667  0.00  0.00    -0.361 OA
ATOM     13  H   LIG d   1       4.578  -2.428  18.347  0.00  0.00     0.217 HD
ENDBRANCH   6  12
TORSDOF 2
ENDMDL
MODEL 6
REMARK VINA RESULT:      -4.7      2.026      2.131
REMARK  2 active torsions:
REMARK  status: ('A' for Active; 'I' for Inactive)
REMARK    1  A    between atoms: O_1  and  C_9 
REMARK    2  A    between atoms: N_3  and  C_4 
REMARK       I    between atoms: N_3  and  C_10 
ROOT
ATOM      1  C   LIG d   1       7.875  27.828 -12.541  0.00  0.00     0.034 A 
ATOM      2  C   LIG d   1       7.661  26.464 -12.326  0.00  0.00     0.032 A 
ATOM      3  C   LIG d   1       7.737  28.713 -11.462  0.00  0.00     0.032 A 
ATOM      4  C   LIG d   1       7.314  25.989 -11.057  0.00  0.00     0.039 A 
ATOM      5  C   LIG d   1       7.391  28.240 -10.193  0.00  0.00     0.039 A 
ATOM      6  C   LIG d   1       7.182  26.882 -10.000  0.00  0.00     0.065 A 
ENDROOT
BRANCH   1   7
ATOM      7  N   LIG d   1       8.229  28.384 -13.787  0.00  0.00    -0.328 N 
ATOM      8  C   LIG d   1       7.382  28.920 -14.742  0.00  0.00     0.218 C 
ATOM      9  O   LIG d   1       6.162  29.014 -14.682  0.00  0.00    -0.274 OA
ATOM     10  C   LIG d   1       8.140  29.411 -15.950  0.00  0.00     0.117 C 
ATOM     11  H   LIG d   1       9.217  28.390 -14.004  0.00  0.00     0.169 HD
ENDBRANCH   1   7
BRANCH   6  12
ATOM     12  O   LIG d   1       6.846  26.461  -8.748  0.00  0.00    -0.361 OA
ATOM     13  H   LIG d   1       6.252  25.697  -8.830  0.00  0.00     0.217 HD
ENDBRANCH   6  12
TORSDOF 2
ENDMDL
MODEL 7
REMARK VINA RESULT:      -4.6     41.457     43.453
REMARK  2 active torsions:
REMARK  status: ('A' for Active; 'I' for Inactive)
REMARK    1  A    between atoms: O_1  and  C_9 
REMARK    2  A    between atoms: N_3  and  C_4 
REMARK       I    between atoms: N_3  and  C_10 
ROOT
ATOM      1  C   LIG d   1       7.709  -0.568  21.371  0.00  0.00     0.034 A 
ATOM      2  C   LIG d   1       6.514  -1.270  21.196  0.00  0.00     0.032 A 
ATOM      3  C   LIG d   1       8.231   0.159  20.292  0.00  0.00     0.032 A 
ATOM      4  C   LIG d   1       5.848  -1.247  19.965  0.00  0.00     0.039 A 
ATOM      5  C   LIG d   1       7.568   0.184  19.063  0.00  0.00     0.039 A 
ATOM      6  C   LIG d   1       6.382  -0.519  18.908  0.00  0.00     0.065 A 
ENDROOT
BRANCH   1   7
ATOM      7  N   LIG d   1       8.437  -0.540  22.578  0.00  0.00    -0.328 N 
ATOM      8  C   LIG d   1       9.657  -1.140  22.841  0.00  0.00     0.218 C 
ATOM      9  O   LIG d   1      10.337  -1.808  22.071  0.00  0.00    -0.274 OA
ATOM     10  C   LIG d   1      10.111  -0.887  24.257  0.00  0.00     0.117 C 
ATOM     11  H   LIG d   1       8.016  -0.021  23.337  0.00  0.00     0.169 HD
ENDBRANCH   1   7
BRANCH   6  12
ATOM     12  O   LIG d   1       5.766  -0.469  17.694  0.00  0.00    -0.361 OA
ATOM     13  H   LIG d   1       6.106   0.300  17.208  0.00  0.00     0.217 HD
ENDBRANCH   6  12
TORSDOF 2
ENDMDL
MODEL 8
REMARK VINA RESULT:      -4.6     29.622     31.204
REMARK  2 active torsions:
REMARK  status: ('A' for Active; 'I' for Inactive)
REMARK    1  A    between atoms: O_1  and  C_9 
REMARK    2  A    between atoms: N_3  and  C_4 
REMARK       I    between atoms: N_3  and  C_10 
ROOT
ATOM      1  C   LIG d   1      15.881  -1.838  -4.246  0.00  0.00     0.034 A 
ATOM      2  C   LIG d   1      16.106  -1.606  -5.605  0.00  0.00     0.032 A 
ATOM      3  C   LIG d   1      14.775  -1.235  -3.630  0.00  0.00     0.032 A 
ATOM      4  C   LIG d   1      15.243  -0.786  -6.340  0.00  0.00     0.039 A 
ATOM      5  C   LIG d   1      13.911  -0.417  -4.363  0.00  0.00     0.039 A 
ATOM      6  C   LIG d   1      14.151  -0.198  -5.711  0.00  0.00     0.065 A 
ENDROOT
BRANCH   1   7
ATOM      7  N   LIG d   1      16.702  -2.651  -3.438  0.00  0.00    -0.328 N 
ATOM      8  C   LIG d   1      17.698  -2.243  -2.569  0.00  0.00     0.218 C 
ATOM      9  O   LIG d   1      18.054  -1.094  -2.334  0.00  0.00    -0.274 OA
ATOM     10  C   LIG d   1      18.360  -3.414  -1.886  0.00  0.00     0.117 C 
ATOM     11  H   LIG d   1      16.541  -3.648  -3.505  0.00  0.00     0.169 HD
ENDBRANCH   1   7
BRANCH   6  12
ATOM     12  O   LIG d   1      13.286   0.606  -6.390  0.00  0.00    -0.361 OA
ATOM     13  H   LIG d   1      12.809   1.157  -5.747  0.00  0.00     0.217 HD
ENDBRANCH   6  12
TORSDOF 2
ENDMDL
MODEL 9
REMARK VINA RESULT:      -4.5     25.155     25.823
REMARK  2 active torsions:
REMARK  status: ('A' for Active; 'I' for Inactive)
REMARK    1  A    between atoms: O_1  and  C_9 
REMARK    2  A    between atoms: N_3  and  C_4 
REMARK       I    between atoms: N_3  and  C_10 
ROOT
ATOM      1  C   LIG d   1      20.300   8.830  -1.479  0.00  0.00     0.034 A 
ATOM      2  C   LIG d   1      19.265   9.418  -0.747  0.00  0.00     0.032 A 
ATOM      3  C   LIG d   1      21.563   8.707  -0.885  0.00  0.00     0.032 A 
ATOM      4  C   LIG d   1      19.486   9.876   0.557  0.00  0.00     0.039 A 
ATOM      5  C   LIG d   1      21.786   9.163   0.417  0.00  0.00     0.039 A 
ATOM      6  C   LIG d   1      20.746   9.745   1.127  0.00  0.00     0.065 A 
ENDROOT
BRANCH   1   7
ATOM      7  N   LIG d   1      20.157   8.342  -2.794  0.00  0.00    -0.328 N 
ATOM      8  C   LIG d   1      20.021   7.025  -3.194  0.00  0.00     0.218 C 
ATOM      9  O   LIG d   1      19.995   6.030  -2.479  0.00  0.00    -0.274 OA
ATOM     10  C   LIG d   1      19.899   6.905  -4.693  0.00  0.00     0.117 C 
ATOM     11  H   LIG d   1      20.155   9.040  -3.526  0.00  0.00     0.169 HD
ENDBRANCH   1   7
BRANCH   6  12
ATOM     12  O   LIG d   1      21.004  10.177   2.394  0.00  0.00    -0.361 OA
ATOM     13  H   LIG d   1      20.547  11.023   2.529  0.00  0.00     0.217 HD
ENDBRANCH   6  12
TORSDOF 2
ENDMDL
