MODEL 1
REMARK VINA RESULT:      -4.8      0.000      0.000
REMARK  6 active torsions:
REMARK  status: ('A' for Active; 'I' for Inactive)
REMARK    1  A    between atoms: S_1  and  C_8 
REMARK    2  A    between atoms: S_1  and  C_10 
REMARK    3  A    between atoms: N_6  and  C_7 
REMARK    4  A    between atoms: C_7  and  C_9 
REMARK    5  A    between atoms: C_7  and  C_8 
REMARK    6  A    between atoms: C_10  and  C_11 
ROOT
ATOM      1  C   UNK d   1       6.254   0.579  -6.563  0.00  0.00     0.292 C 
ENDROOT
BRANCH   1   2
ATOM      2  N   UNK d   1       6.864   0.857  -7.912  0.00  0.00    -0.065 N 
ATOM      3  H   UNK d   1       7.180   1.810  -8.060  0.00  0.00     0.275 HD
ATOM      4  H   UNK d   1       6.209   0.640  -8.707  0.00  0.00     0.275 HD
ATOM      5  H   UNK d   1       7.643   0.175  -7.989  0.00  0.00     0.275 HD
ENDBRANCH   1   2
BRANCH   1   6
ATOM      6  C   UNK d   1       6.188   1.885  -5.721  0.00  0.00     0.205 C 
ATOM      7  O   UNK d   1       5.186   2.598  -6.059  0.00  0.00    -0.646 OA
ATOM      8  O   UNK d   1       7.055   2.053  -4.831  0.00  0.00    -0.646 OA
ENDBRANCH   1   6
BRANCH   1   9
ATOM      9  C   UNK d   1       7.039  -0.490  -5.805  0.00  0.00     0.118 C 
BRANCH   9  10
ATOM     10  S   UNK d   1       6.108  -2.076  -5.667  0.00  0.00    -0.156 SA
BRANCH  10  11
ATOM     11  C   UNK d   1       5.934  -2.516  -7.442  0.00  0.00     0.186 C 
BRANCH  11  12
ATOM     12  C   UNK d   1       4.863  -3.608  -7.533  0.00  0.00     0.182 C 
ATOM     13  O   UNK d   1       4.336  -3.760  -8.682  0.00  0.00    -0.647 OA
ATOM     14  O   UNK d   1       4.595  -4.224  -6.468  0.00  0.00    -0.647 OA
ENDBRANCH  11  12
ENDBRANCH  10  11
ENDBRANCH   9  10
ENDBRANCH   1   9
TORSDOF 6
ENDMDL
MODEL 2
REMARK VINA RESULT:      -4.7      1.949      2.451
REMARK  6 active torsions:
REMARK  status: ('A' for Active; 'I' for Inactive)
REMARK    1  A    between atoms: S_1  and  C_8 
REMARK    2  A    between atoms: S_1  and  C_10 
REMARK    3  A    between atoms: N_6  and  C_7 
REMARK    4  A    between atoms: C_7  and  C_9 
REMARK    5  A    between atoms: C_7  and  C_8 
REMARK    6  A    between atoms: C_10  and  C_11 
ROOT
ATOM      1  C   UNK d   1       6.155   0.503  -6.589  0.00  0.00     0.292 C 
ENDROOT
BRANCH   1   2
ATOM      2  N   UNK d   1       6.690   1.276  -7.766  0.00  0.00    -0.065 N 
ATOM      3  H   UNK d   1       6.012   1.496  -8.488  0.00  0.00     0.275 HD
ATOM      4  H   UNK d   1       7.483   0.780  -8.252  0.00  0.00     0.275 HD
ATOM      5  H   UNK d   1       7.102   2.131  -7.348  0.00  0.00     0.275 HD
ENDBRANCH   1   2
BRANCH   1   6
ATOM      6  C   UNK d   1       7.161   0.561  -5.404  0.00  0.00     0.205 C 
ATOM      7  O   UNK d   1       7.140   1.705  -4.840  0.00  0.00    -0.646 OA
ATOM      8  O   UNK d   1       7.807  -0.479  -5.131  0.00  0.00    -0.646 OA
ENDBRANCH   1   6
BRANCH   1   9
ATOM      9  C   UNK d   1       5.871  -0.952  -6.960  0.00  0.00     0.118 C 
BRANCH   9  10
ATOM     10  S   UNK d   1       5.665  -1.184  -8.778  0.00  0.00    -0.156 SA
BRANCH  10  11
ATOM     11  C   UNK d   1       5.210  -2.962  -8.837  0.00  0.00     0.186 C 
BRANCH  11  12
ATOM     12  C   UNK d   1       4.290  -3.152 -10.047  0.00  0.00     0.182 C 
ATOM     13  O   UNK d   1       3.338  -3.982  -9.883  0.00  0.00    -0.647 OA
ATOM     14  O   UNK d   1       4.575  -2.492 -11.081  0.00  0.00    -0.647 OA
ENDBRANCH  11  12
ENDBRANCH  10  11
ENDBRANCH   9  10
ENDBRANCH   1   9
TORSDOF 6
ENDMDL
MODEL 3
REMARK VINA RESULT:      -4.5      9.365     10.313
REMARK  6 active torsions:
REMARK  status: ('A' for Active; 'I' for Inactive)
REMARK    1  A    between atoms: S_1  and  C_8 
REMARK    2  A    between atoms: S_1  and  C_10 
REMARK    3  A    between atoms: N_6  and  C_7 
REMARK    4  A    between atoms: C_7  and  C_9 
REMARK    5  A    between atoms: C_7  and  C_8 
REMARK    6  A    between atoms: C_10  and  C_11 
ROOT
ATOM      1  C   UNK d   1      14.092  -0.441  -4.429  0.00  0.00     0.292 C 
ENDROOT
BRANCH   1   2
ATOM      2  N   UNK d   1      12.653  -0.352  -3.994  0.00  0.00    -0.065 N 
ATOM      3  H   UNK d   1      12.499  -0.348  -2.992  0.00  0.00     0.275 HD
ATOM      4  H   UNK d   1      12.064  -1.138  -4.376  0.00  0.00     0.275 HD
ATOM      5  H   UNK d   1      12.300   0.514  -4.444  0.00  0.00     0.275 HD
ENDBRANCH   1   2
BRANCH   1   6
ATOM      6  C   UNK d   1      14.291   0.286  -5.789  0.00  0.00     0.205 C 
ATOM      7  O   UNK d   1      15.520   0.562  -5.987  0.00  0.00    -0.646 OA
ATOM      8  O   UNK d   1      13.280   0.469  -6.510  0.00  0.00    -0.646 OA
ENDBRANCH   1   6
BRANCH   1   9
ATOM      9  C   UNK d   1      14.552  -1.893  -4.543  0.00  0.00     0.118 C 
BRANCH   9  10
ATOM     10  S   UNK d   1      15.953  -2.275  -3.406  0.00  0.00    -0.156 SA
BRANCH  10  11
ATOM     11  C   UNK d   1      16.055  -4.099  -3.605  0.00  0.00     0.186 C 
BRANCH  11  12
ATOM     12  C   UNK d   1      16.629  -4.662  -2.301  0.00  0.00     0.182 C 
ATOM     13  O   UNK d   1      16.129  -4.182  -1.232  0.00  0.00    -0.647 OA
ATOM     14  O   UNK d   1      17.545  -5.519  -2.413  0.00  0.00    -0.647 OA
ENDBRANCH  11  12
ENDBRANCH  10  11
ENDBRANCH   9  10
ENDBRANCH   1   9
TORSDOF 6
ENDMDL
MODEL 4
REMARK VINA RESULT:      -4.4      1.751      2.075
REMARK  6 active torsions:
REMARK  status: ('A' for Active; 'I' for Inactive)
REMARK    1  A    between atoms: S_1  and  C_8 
REMARK    2  A    between atoms: S_1  and  C_10 
REMARK    3  A    between atoms: N_6  and  C_7 
REMARK    4  A    between atoms: C_7  and  C_9 
REMARK    5  A    between atoms: C_7  and  C_8 
REMARK    6  A    between atoms: C_10  and  C_11 
ROOT
ATOM      1  C   UNK d   1       5.987   1.885  -6.313  0.00  0.00     0.292 C 
ENDROOT
BRANCH   1   2
ATOM      2  N   UNK d   1       6.666   2.656  -7.415  0.00  0.00    -0.065 N 
ATOM      3  H   UNK d   1       7.275   3.408  -7.111  0.00  0.00     0.275 HD
ATOM      4  H   UNK d   1       5.982   3.089  -8.089  0.00  0.00     0.275 HD
ATOM      5  H   UNK d   1       7.181   1.935  -7.955  0.00  0.00     0.275 HD
ENDBRANCH   1   2
BRANCH   1   6
ATOM      6  C   UNK d   1       6.966   1.669  -5.124  0.00  0.00     0.205 C 
ATOM      7  O   UNK d   1       7.076   2.728  -4.422  0.00  0.00    -0.646 OA
ATOM      8  O   UNK d   1       7.470   0.530  -4.980  0.00  0.00    -0.646 OA
ENDBRANCH   1   6
BRANCH   1   9
ATOM      9  C   UNK d   1       5.468   0.538  -6.812  0.00  0.00     0.118 C 
BRANCH   9  10
ATOM     10  S   UNK d   1       6.450  -0.107  -8.234  0.00  0.00    -0.156 SA
BRANCH  10  11
ATOM     11  C   UNK d   1       5.652  -1.744  -8.474  0.00  0.00     0.186 C 
BRANCH  11  12
ATOM     12  C   UNK d   1       5.902  -2.558  -7.201  0.00  0.00     0.182 C 
ATOM     13  O   UNK d   1       4.987  -3.390  -6.897  0.00  0.00    -0.647 OA
ATOM     14  O   UNK d   1       6.966  -2.312  -6.575  0.00  0.00    -0.647 OA
ENDBRANCH  11  12
ENDBRANCH  10  11
ENDBRANCH   9  10
ENDBRANCH   1   9
TORSDOF 6
ENDMDL
MODEL 5
REMARK VINA RESULT:      -4.3     18.681     20.286
REMARK  6 active torsions:
REMARK  status: ('A' for Active; 'I' for Inactive)
REMARK    1  A    between atoms: S_1  and  C_8 
REMARK    2  A    between atoms: S_1  and  C_10 
REMARK    3  A    between atoms: N_6  and  C_7 
REMARK    4  A    between atoms: C_7  and  C_9 
REMARK    5  A    between atoms: C_7  and  C_8 
REMARK    6  A    between atoms: C_10  and  C_11 
ROOT
ATOM      1  C   UNK d   1       9.553  15.440   2.007  0.00  0.00     0.292 C 
ENDROOT
BRANCH   1   2
ATOM      2  N   UNK d   1       8.701  14.525   1.166  0.00  0.00    -0.065 N 
ATOM      3  H   UNK d   1       8.914  13.537   1.244  0.00  0.00     0.275 HD
ATOM      4  H   UNK d   1       8.750  14.754   0.139  0.00  0.00     0.275 HD
ATOM      5  H   UNK d   1       7.728  14.736   1.460  0.00  0.00     0.275 HD
ENDBRANCH   1   2
BRANCH   1   6
ATOM      6  C   UNK d   1      10.348  14.618   3.061  0.00  0.00     0.205 C 
ATOM      7  O   UNK d   1       9.738  13.538   3.356  0.00  0.00    -0.646 OA
ATOM      8  O   UNK d   1      11.454  15.070   3.443  0.00  0.00    -0.646 OA
ENDBRANCH   1   6
BRANCH   1   9
ATOM      9  C   UNK d   1       8.708  16.504   2.705  0.00  0.00     0.118 C 
BRANCH   9  10
ATOM     10  S   UNK d   1       7.894  17.648   1.509  0.00  0.00    -0.156 SA
BRANCH  10  11
ATOM     11  C   UNK d   1       9.336  18.135   0.480  0.00  0.00     0.186 C 
BRANCH  11  12
ATOM     12  C   UNK d   1       8.995  19.482  -0.165  0.00  0.00     0.182 C 
ATOM     13  O   UNK d   1       7.780  19.624  -0.522  0.00  0.00    -0.647 OA
ATOM     14  O   UNK d   1       9.943  20.299  -0.298  0.00  0.00    -0.647 OA
ENDBRANCH  11  12
ENDBRANCH  10  11
ENDBRANCH   9  10
ENDBRANCH   1   9
TORSDOF 6
ENDMDL
MODEL 6
REMARK VINA RESULT:      -4.1      9.240      9.783
REMARK  6 active torsions:
REMARK  status: ('A' for Active; 'I' for Inactive)
REMARK    1  A    between atoms: S_1  and  C_8 
REMARK    2  A    between atoms: S_1  and  C_10 
REMARK    3  A    between atoms: N_6  and  C_7 
REMARK    4  A    between atoms: C_7  and  C_9 
REMARK    5  A    between atoms: C_7  and  C_8 
REMARK    6  A    between atoms: C_10  and  C_11 
ROOT
ATOM      1  C   UNK d   1      14.988  -1.583  -4.431  0.00  0.00     0.292 C 
ENDROOT
BRANCH   1   2
ATOM      2  N   UNK d   1      15.595  -1.670  -3.055  0.00  0.00    -0.065 N 
ATOM      3  H   UNK d   1      15.930  -2.588  -2.784  0.00  0.00     0.275 HD
ATOM      4  H   UNK d   1      14.929  -1.368  -2.297  0.00  0.00     0.275 HD
ATOM      5  H   UNK d   1      16.357  -0.966  -3.063  0.00  0.00     0.275 HD
ENDBRANCH   1   2
BRANCH   1   6
ATOM      6  C   UNK d   1      13.838  -0.535  -4.447  0.00  0.00     0.205 C 
ATOM      7  O   UNK d   1      12.831  -0.970  -5.097  0.00  0.00    -0.646 OA
ATOM      8  O   UNK d   1      14.013   0.537  -3.820  0.00  0.00    -0.646 OA
ENDBRANCH   1   6
BRANCH   1   9
ATOM      9  C   UNK d   1      14.463  -2.939  -4.896  0.00  0.00     0.118 C 
BRANCH   9  10
ATOM     10  S   UNK d   1      15.815  -4.174  -5.121  0.00  0.00    -0.156 SA
BRANCH  10  11
ATOM     11  C   UNK d   1      14.832  -5.679  -5.499  0.00  0.00     0.186 C 
BRANCH  11  12
ATOM     12  C   UNK d   1      15.301  -6.777  -4.539  0.00  0.00     0.182 C 
ATOM     13  O   UNK d   1      14.437  -7.673  -4.272  0.00  0.00    -0.647 OA
ATOM     14  O   UNK d   1      16.475  -6.672  -4.094  0.00  0.00    -0.647 OA
ENDBRANCH  11  12
ENDBRANCH  10  11
ENDBRANCH   9  10
ENDBRANCH   1   9
TORSDOF 6
ENDMDL
MODEL 7
REMARK VINA RESULT:      -4.1     26.467     27.728
REMARK  6 active torsions:
REMARK  status: ('A' for Active; 'I' for Inactive)
REMARK    1  A    between atoms: S_1  and  C_8 
REMARK    2  A    between atoms: S_1  and  C_10 
REMARK    3  A    between atoms: N_6  and  C_7 
REMARK    4  A    between atoms: C_7  and  C_9 
REMARK    5  A    between atoms: C_7  and  C_8 
REMARK    6  A    between atoms: C_10  and  C_11 
ROOT
ATOM      1  C   UNK d   1       5.746   0.058  19.988  0.00  0.00     0.292 C 
ENDROOT
BRANCH   1   2
ATOM      2  N   UNK d   1       5.965  -1.015  21.023  0.00  0.00    -0.065 N 
ATOM      3  H   UNK d   1       5.693  -1.951  20.744  0.00  0.00     0.275 HD
ATOM      4  H   UNK d   1       5.457  -0.820  21.925  0.00  0.00     0.275 HD
ATOM      5  H   UNK d   1       6.977  -0.955  21.246  0.00  0.00     0.275 HD
ENDBRANCH   1   2
BRANCH   1   6
ATOM      6  C   UNK d   1       6.683  -0.169  18.768  0.00  0.00     0.205 C 
ATOM      7  O   UNK d   1       6.117  -0.892  17.883  0.00  0.00    -0.646 OA
ATOM      8  O   UNK d   1       7.807   0.388  18.780  0.00  0.00    -0.646 OA
ENDBRANCH   1   6
BRANCH   1   9
ATOM      9  C   UNK d   1       5.978   1.451  20.571  0.00  0.00     0.118 C 
BRANCH   9  10
ATOM     10  S   UNK d   1       6.116   1.426  22.410  0.00  0.00    -0.156 SA
BRANCH  10  11
ATOM     11  C   UNK d   1       7.801   2.124  22.627  0.00  0.00     0.186 C 
BRANCH  11  12
ATOM     12  C   UNK d   1       8.787   1.114  22.031  0.00  0.00     0.182 C 
ATOM     13  O   UNK d   1       9.693   1.612  21.286  0.00  0.00    -0.647 OA
ATOM     14  O   UNK d   1       8.593  -0.097  22.313  0.00  0.00    -0.647 OA
ENDBRANCH  11  12
ENDBRANCH  10  11
ENDBRANCH   9  10
ENDBRANCH   1   9
TORSDOF 6
ENDMDL
MODEL 8
REMARK VINA RESULT:      -4.1     11.482     12.256
REMARK  6 active torsions:
REMARK  status: ('A' for Active; 'I' for Inactive)
REMARK    1  A    between atoms: S_1  and  C_8 
REMARK    2  A    between atoms: S_1  and  C_10 
REMARK    3  A    between atoms: N_6  and  C_7 
REMARK    4  A    between atoms: C_7  and  C_9 
REMARK    5  A    between atoms: C_7  and  C_8 
REMARK    6  A    between atoms: C_10  and  C_11 
ROOT
ATOM      1  C   UNK d   1       2.151  10.370  -4.437  0.00  0.00     0.292 C 
ENDROOT
BRANCH   1   2
ATOM      2  N   UNK d   1       1.070  11.409  -4.291  0.00  0.00    -0.065 N 
ATOM      3  H   UNK d   1       0.235  11.104  -3.804  0.00  0.00     0.275 HD
ATOM      4  H   UNK d   1       0.745  11.790  -5.218  0.00  0.00     0.275 HD
ATOM      5  H   UNK d   1       1.535  12.199  -3.805  0.00  0.00     0.275 HD
ENDBRANCH   1   2
BRANCH   1   6
ATOM      6  C   UNK d   1       1.824   9.415  -5.620  0.00  0.00     0.205 C 
ATOM      7  O   UNK d   1       2.311   9.855  -6.713  0.00  0.00    -0.646 OA
ATOM      8  O   UNK d   1       1.191   8.362  -5.365  0.00  0.00    -0.646 OA
ENDBRANCH   1   6
BRANCH   1   9
ATOM      9  C   UNK d   1       2.328   9.565  -3.151  0.00  0.00     0.118 C 
BRANCH   9  10
ATOM     10  S   UNK d   1       1.019   9.938  -1.906  0.00  0.00    -0.156 SA
BRANCH  10  11
ATOM     11  C   UNK d   1       0.017   8.402  -2.007  0.00  0.00     0.186 C 
BRANCH  11  12
ATOM     12  C   UNK d   1      -1.256   8.745  -2.787  0.00  0.00     0.182 C 
ATOM     13  O   UNK d   1      -2.200   7.895  -2.693  0.00  0.00    -0.647 OA
ATOM     14  O   UNK d   1      -1.237   9.812  -3.456  0.00  0.00    -0.647 OA
ENDBRANCH  11  12
ENDBRANCH  10  11
ENDBRANCH   9  10
ENDBRANCH   1   9
TORSDOF 6
ENDMDL
MODEL 9
REMARK VINA RESULT:      -4.0      8.720      9.318
REMARK  6 active torsions:
REMARK  status: ('A' for Active; 'I' for Inactive)
REMARK    1  A    between atoms: S_1  and  C_8 
REMARK    2  A    between atoms: S_1  and  C_10 
REMARK    3  A    between atoms: N_6  and  C_7 
REMARK    4  A    between atoms: C_7  and  C_9 
REMARK    5  A    between atoms: C_7  and  C_8 
REMARK    6  A    between atoms: C_10  and  C_11 
ROOT
ATOM      1  C   UNK d   1      14.083  -0.685  -4.555  0.00  0.00     0.292 C 
ENDROOT
BRANCH   1   2
ATOM      2  N   UNK d   1      12.734  -0.315  -3.997  0.00  0.00    -0.065 N 
ATOM      3  H   UNK d   1      12.112  -1.093  -3.808  0.00  0.00     0.275 HD
ATOM      4  H   UNK d   1      12.200   0.340  -4.626  0.00  0.00     0.275 HD
ATOM      5  H   UNK d   1      12.950   0.227  -3.138  0.00  0.00     0.275 HD
ENDBRANCH   1   2
BRANCH   1   6
ATOM      6  C   UNK d   1      14.410   0.188  -5.800  0.00  0.00     0.205 C 
ATOM      7  O   UNK d   1      13.350   0.487  -6.442  0.00  0.00    -0.646 OA
ATOM      8  O   UNK d   1      15.607   0.512  -5.991  0.00  0.00    -0.646 OA
ENDBRANCH   1   6
BRANCH   1   9
ATOM      9  C   UNK d   1      14.145  -2.166  -4.927  0.00  0.00     0.118 C 
BRANCH   9  10
ATOM     10  S   UNK d   1      15.650  -2.994  -4.254  0.00  0.00    -0.156 SA
BRANCH  10  11
ATOM     11  C   UNK d   1      15.868  -4.339  -5.485  0.00  0.00     0.186 C 
BRANCH  11  12
ATOM     12  C   UNK d   1      15.111  -5.561  -4.956  0.00  0.00     0.182 C 
ATOM     13  O   UNK d   1      15.641  -6.139  -3.953  0.00  0.00    -0.647 OA
ATOM     14  O   UNK d   1      14.062  -5.885  -5.573  0.00  0.00    -0.647 OA
ENDBRANCH  11  12
ENDBRANCH  10  11
ENDBRANCH   9  10
ENDBRANCH   1   9
TORSDOF 6
ENDMDL
