REMARK  6 active torsions:
REMARK  status: ('A' for Active; 'I' for Inactive)
REMARK    1  A    between atoms: S_1  and  C_8 
REMARK    2  A    between atoms: S_1  and  C_10 
REMARK    3  A    between atoms: N_6  and  C_7 
REMARK    4  A    between atoms: C_7  and  C_9 
REMARK    5  A    between atoms: C_7  and  C_8 
REMARK    6  A    between atoms: C_10  and  C_11 
ROOT
ATOM      1  C   UNK d   1      -4.159 -26.262 -15.026  0.00  0.00     0.292 C 
ENDROOT
BRANCH   1   2
ATOM      2  N   UNK d   1      -2.924 -26.830 -14.378  0.00  0.00    -0.065 N 
ATOM      3  H   UNK d   1      -3.078 -27.624 -13.766  0.00  0.00     0.275 HD
ATOM      4  H   UNK d   1      -2.401 -26.117 -13.804  0.00  0.00     0.275 HD
ATOM      5  H   UNK d   1      -2.301 -27.068 -15.173  0.00  0.00     0.275 HD
ENDBRANCH   1   2
BRANCH   1   6
ATOM      6  C   UNK d   1      -4.498 -27.049 -16.324  0.00  0.00     0.205 C 
ATOM      7  O   UNK d   1      -3.569 -27.871 -16.617  0.00  0.00    -0.646 OA
ATOM      8  O   UNK d   1      -5.603 -26.825 -16.874  0.00  0.00    -0.646 OA
ENDBRANCH   1   6
BRANCH   1   9
ATOM      9  C   UNK d   1      -3.989 -24.778 -15.347  0.00  0.00     0.118 C 
BRANCH   9  10
ATOM     10  S   UNK d   1      -3.253 -24.503 -17.016  0.00  0.00    -0.156 SA
BRANCH  10  11
ATOM     11  C   UNK d   1      -1.529 -24.071 -16.553  0.00  0.00     0.186 C 
BRANCH  11  12
ATOM     12  C   UNK d   1      -1.128 -24.995 -15.399  0.00  0.00     0.182 C 
ATOM     13  O   UNK d   1      -0.999 -26.225 -15.705  0.00  0.00    -0.647 OA
ATOM     14  O   UNK d   1      -0.989 -24.458 -14.269  0.00  0.00    -0.647 OA
ENDBRANCH  11  12
ENDBRANCH  10  11
ENDBRANCH   9  10
ENDBRANCH   1   9
TORSDOF 6
