MODEL 1
REMARK VINA RESULT:      -8.8      0.000      0.000
REMARK  11 active torsions:
REMARK  status: ('A' for Active; 'I' for Inactive)
REMARK    1  A    between atoms: O_2  and  C_17 
REMARK    2  A    between atoms: O_2  and  C_19 
REMARK    3  A    between atoms: O_3  and  C_13 
REMARK    4  A    between atoms: O_4  and  C_14 
REMARK    5  A    between atoms: O_5  and  C_15 
REMARK    6  A    between atoms: O_6  and  C_18 
REMARK    7  A    between atoms: O_8  and  C_21 
REMARK    8  A    between atoms: O_11  and  C_30 
REMARK    9  A    between atoms: O_12  and  C_33 
REMARK   10  A    between atoms: C_16  and  C_18 
REMARK   11  A    between atoms: C_22  and  C_25 
ROOT
ATOM      1  C   UNK d   1      10.293  -1.176  23.218  0.00  0.00     0.106 A 
ATOM      2  C   UNK d   1       9.608  -2.236  23.843  0.00  0.00     0.054 A 
ATOM      3  C   UNK d   1      10.847  -0.154  24.008  0.00  0.00     0.101 A 
ATOM      4  C   UNK d   1       9.407  -2.283  25.236  0.00  0.00     0.001 A 
ATOM      5  C   UNK d   1      10.677  -0.199  25.393  0.00  0.00     0.040 A 
ATOM      6  C   UNK d   1       9.960  -1.241  25.992  0.00  0.00     0.017 A 
ENDROOT
BRANCH   1   7
ATOM      7  O   UNK d   1      10.461  -1.051  21.857  0.00  0.00    -0.315 OA
BRANCH   7   8
ATOM      8  C   UNK d   1       9.320  -1.250  21.018  0.00  0.00     0.299 C 
ATOM      9  O   UNK d   1       9.408  -2.531  20.388  0.00  0.00    -0.340 OA
ATOM     10  C   UNK d   1       8.287  -2.857  19.577  0.00  0.00     0.253 C 
ATOM     11  C   UNK d   1       8.131  -1.841  18.443  0.00  0.00     0.189 C 
ATOM     12  C   UNK d   1       8.080  -0.423  19.015  0.00  0.00     0.183 C 
ATOM     13  C   UNK d   1       9.268  -0.143  19.942  0.00  0.00     0.205 C 
BRANCH  10  14
ATOM     14  C   UNK d   1       8.433  -4.267  18.980  0.00  0.00     0.172 C 
ATOM     15  O   UNK d   1       7.934  -5.282  19.438  0.00  0.00    -0.648 OA
BRANCH  14  16
ATOM     16  O   UNK d   1       9.147  -4.290  17.823  0.00  0.00    -0.774 OA
ATOM     17  H   UNK d   1       9.702  -5.101  17.739  0.00  0.00     0.167 HD
ENDBRANCH  14  16
ENDBRANCH  10  14
BRANCH  11  18
ATOM     18  O   UNK d   1       6.908  -2.093  17.723  0.00  0.00    -0.390 OA
ATOM     19  H   UNK d   1       6.267  -1.429  18.056  0.00  0.00     0.210 HD
ENDBRANCH  11  18
BRANCH  12  20
ATOM     20  O   UNK d   1       8.063   0.526  17.936  0.00  0.00    -0.390 OA
ATOM     21  H   UNK d   1       8.578   1.302  18.226  0.00  0.00     0.210 HD
ENDBRANCH  12  20
BRANCH  13  22
ATOM     22  O   UNK d   1       9.064   1.155  20.525  0.00  0.00    -0.388 OA
ATOM     23  H   UNK d   1       8.212   1.472  20.170  0.00  0.00     0.210 HD
ENDBRANCH  13  22
ENDBRANCH   7   8
ENDBRANCH   1   7
BRANCH   3  24
ATOM     24  O   UNK d   1      11.526   0.841  23.350  0.00  0.00    -0.353 OA
ATOM     25  C   UNK d   1      12.946   0.755  23.330  0.00  0.00     0.210 C 
ENDBRANCH   3  24
BRANCH   4  26
ATOM     26  C   UNK d   1       8.620  -3.393  25.855  0.00  0.00     0.090 A 
ATOM     27  O   UNK d   1       7.820  -4.104  24.968  0.00  0.00    -0.309 OA
ATOM     28  C   UNK d   1       7.054  -5.142  25.443  0.00  0.00     0.095 A 
ATOM     29  C   UNK d   1       7.016  -5.520  26.787  0.00  0.00     0.081 A 
ATOM     30  C   UNK d   1       6.286  -5.828  24.499  0.00  0.00     0.075 A 
ATOM     31  C   UNK d   1       7.848  -4.754  27.735  0.00  0.00     0.190 A 
ATOM     32  C   UNK d   1       6.203  -6.594  27.179  0.00  0.00     0.085 A 
ATOM     33  O   UNK d   1       7.898  -4.956  28.941  0.00  0.00    -0.287 OA
ATOM     34  C   UNK d   1       8.664  -3.670  27.166  0.00  0.00     0.094 A 
ATOM     35  C   UNK d   1       5.434  -7.283  26.237  0.00  0.00     0.074 A 
ATOM     36  C   UNK d   1       5.484  -6.890  24.903  0.00  0.00     0.071 A 
BRANCH  32  37
ATOM     37  O   UNK d   1       6.146  -6.985  28.486  0.00  0.00    -0.360 OA
ATOM     38  H   UNK d   1       6.941  -7.478  28.738  0.00  0.00     0.217 HD
ENDBRANCH  32  37
BRANCH  36  39
ATOM     39  O   UNK d   1       4.751  -7.530  23.948  0.00  0.00    -0.361 OA
ATOM     40  H   UNK d   1       4.971  -8.477  23.955  0.00  0.00     0.217 HD
ENDBRANCH  36  39
ENDBRANCH   4  26
TORSDOF 11
ENDMDL
MODEL 2
REMARK VINA RESULT:      -8.4     25.633     31.594
REMARK  11 active torsions:
REMARK  status: ('A' for Active; 'I' for Inactive)
REMARK    1  A    between atoms: O_2  and  C_17 
REMARK    2  A    between atoms: O_2  and  C_19 
REMARK    3  A    between atoms: O_3  and  C_13 
REMARK    4  A    between atoms: O_4  and  C_14 
REMARK    5  A    between atoms: O_5  and  C_15 
REMARK    6  A    between atoms: O_6  and  C_18 
REMARK    7  A    between atoms: O_8  and  C_21 
REMARK    8  A    between atoms: O_11  and  C_30 
REMARK    9  A    between atoms: O_12  and  C_33 
REMARK   10  A    between atoms: C_16  and  C_18 
REMARK   11  A    between atoms: C_22  and  C_25 
ROOT
ATOM      1  C   UNK d   1       9.771  16.619   2.338  0.00  0.00     0.106 A 
ATOM      2  C   UNK d   1       9.962  17.881   1.741  0.00  0.00     0.054 A 
ATOM      3  C   UNK d   1       8.496  16.030   2.308  0.00  0.00     0.101 A 
ATOM      4  C   UNK d   1       8.903  18.604   1.159  0.00  0.00     0.001 A 
ATOM      5  C   UNK d   1       7.440  16.724   1.715  0.00  0.00     0.040 A 
ATOM      6  C   UNK d   1       7.641  17.993   1.160  0.00  0.00     0.017 A 
ENDROOT
BRANCH   1   7
ATOM      7  O   UNK d   1      10.759  15.900   2.974  0.00  0.00    -0.315 OA
BRANCH   7   8
ATOM      8  C   UNK d   1      11.184  16.343   4.267  0.00  0.00     0.299 C 
ATOM      9  O   UNK d   1      12.413  17.063   4.145  0.00  0.00    -0.340 OA
ATOM     10  C   UNK d   1      12.893  17.603   5.369  0.00  0.00     0.253 C 
ATOM     11  C   UNK d   1      13.160  16.485   6.379  0.00  0.00     0.189 C 
ATOM     12  C   UNK d   1      11.911  15.618   6.542  0.00  0.00     0.183 C 
ATOM     13  C   UNK d   1      11.386  15.122   5.191  0.00  0.00     0.205 C 
BRANCH  10  14
ATOM     14  C   UNK d   1      14.187  18.406   5.144  0.00  0.00     0.172 C 
ATOM     15  O   UNK d   1      14.777  19.045   5.999  0.00  0.00    -0.648 OA
BRANCH  14  16
ATOM     16  O   UNK d   1      14.672  18.299   3.878  0.00  0.00    -0.774 OA
ATOM     17  H   UNK d   1      15.047  17.406   3.693  0.00  0.00     0.167 HD
ENDBRANCH  14  16
ENDBRANCH  10  14
BRANCH  11  18
ATOM     18  O   UNK d   1      13.499  17.053   7.660  0.00  0.00    -0.390 OA
ATOM     19  H   UNK d   1      14.421  17.374   7.568  0.00  0.00     0.210 HD
ENDBRANCH  11  18
BRANCH  12  20
ATOM     20  O   UNK d   1      12.214  14.501   7.395  0.00  0.00    -0.390 OA
ATOM     21  H   UNK d   1      12.101  14.803   8.315  0.00  0.00     0.210 HD
ENDBRANCH  12  20
BRANCH  13  22
ATOM     22  O   UNK d   1      10.150  14.431   5.436  0.00  0.00    -0.388 OA
ATOM     23  H   UNK d   1       9.446  15.027   5.115  0.00  0.00     0.210 HD
ENDBRANCH  13  22
ENDBRANCH   7   8
ENDBRANCH   1   7
BRANCH   3  24
ATOM     24  O   UNK d   1       8.371  14.789   2.882  0.00  0.00    -0.353 OA
ATOM     25  C   UNK d   1       7.885  13.737   2.056  0.00  0.00     0.210 C 
ENDBRANCH   3  24
BRANCH   4  26
ATOM     26  C   UNK d   1       9.132  19.968   0.592  0.00  0.00     0.090 A 
ATOM     27  O   UNK d   1       8.074  20.473  -0.156  0.00  0.00    -0.309 OA
ATOM     28  C   UNK d   1       8.191  21.719  -0.723  0.00  0.00     0.095 A 
ATOM     29  C   UNK d   1       9.334  22.514  -0.607  0.00  0.00     0.081 A 
ATOM     30  C   UNK d   1       7.088  22.177  -1.446  0.00  0.00     0.075 A 
ATOM     31  C   UNK d   1      10.466  21.973   0.168  0.00  0.00     0.190 A 
ATOM     32  C   UNK d   1       9.362  23.776  -1.222  0.00  0.00     0.085 A 
ATOM     33  O   UNK d   1      11.536  22.545   0.334  0.00  0.00    -0.287 OA
ATOM     34  C   UNK d   1      10.275  20.644   0.771  0.00  0.00     0.094 A 
ATOM     35  C   UNK d   1       8.259  24.237  -1.946  0.00  0.00     0.074 A 
ATOM     36  C   UNK d   1       7.131  23.429  -2.051  0.00  0.00     0.071 A 
BRANCH  32  37
ATOM     37  O   UNK d   1      10.466  24.574  -1.125  0.00  0.00    -0.360 OA
ATOM     38  H   UNK d   1      11.269  24.046  -1.000  0.00  0.00     0.217 HD
ENDBRANCH  32  37
BRANCH  36  39
ATOM     39  O   UNK d   1       6.032  23.835  -2.748  0.00  0.00    -0.361 OA
ATOM     40  H   UNK d   1       5.883  23.229  -3.494  0.00  0.00     0.217 HD
ENDBRANCH  36  39
ENDBRANCH   4  26
TORSDOF 11
ENDMDL
MODEL 3
REMARK VINA RESULT:      -8.3      2.209      4.541
REMARK  11 active torsions:
REMARK  status: ('A' for Active; 'I' for Inactive)
REMARK    1  A    between atoms: O_2  and  C_17 
REMARK    2  A    between atoms: O_2  and  C_19 
REMARK    3  A    between atoms: O_3  and  C_13 
REMARK    4  A    between atoms: O_4  and  C_14 
REMARK    5  A    between atoms: O_5  and  C_15 
REMARK    6  A    between atoms: O_6  and  C_18 
REMARK    7  A    between atoms: O_8  and  C_21 
REMARK    8  A    between atoms: O_11  and  C_30 
REMARK    9  A    between atoms: O_12  and  C_33 
REMARK   10  A    between atoms: C_16  and  C_18 
REMARK   11  A    between atoms: C_22  and  C_25 
ROOT
ATOM      1  C   UNK d   1       8.398  -2.848  20.484  0.00  0.00     0.106 A 
ATOM      2  C   UNK d   1       8.357  -3.229  21.839  0.00  0.00     0.054 A 
ATOM      3  C   UNK d   1       8.102  -3.799  19.493  0.00  0.00     0.101 A 
ATOM      4  C   UNK d   1       8.083  -4.551  22.240  0.00  0.00     0.001 A 
ATOM      5  C   UNK d   1       7.806  -5.109  19.875  0.00  0.00     0.040 A 
ATOM      6  C   UNK d   1       7.808  -5.477  21.225  0.00  0.00     0.017 A 
ENDROOT
BRANCH   1   7
ATOM      7  O   UNK d   1       8.722  -1.585  20.038  0.00  0.00    -0.315 OA
BRANCH   7   8
ATOM      8  C   UNK d   1       8.133  -0.466  20.706  0.00  0.00     0.299 C 
ATOM      9  O   UNK d   1       7.125   0.112  19.872  0.00  0.00    -0.340 OA
ATOM     10  C   UNK d   1       6.431   1.199  20.469  0.00  0.00     0.253 C 
ATOM     11  C   UNK d   1       7.400   2.335  20.805  0.00  0.00     0.189 C 
ATOM     12  C   UNK d   1       8.552   1.803  21.658  0.00  0.00     0.183 C 
ATOM     13  C   UNK d   1       9.221   0.586  21.011  0.00  0.00     0.205 C 
BRANCH  10  14
ATOM     14  C   UNK d   1       5.331   1.729  19.532  0.00  0.00     0.172 C 
ATOM     15  O   UNK d   1       4.265   2.202  19.892  0.00  0.00    -0.648 OA
BRANCH  14  16
ATOM     16  O   UNK d   1       5.674   1.677  18.217  0.00  0.00    -0.774 OA
ATOM     17  H   UNK d   1       5.588   2.553  17.772  0.00  0.00     0.167 HD
ENDBRANCH  14  16
ENDBRANCH  10  14
BRANCH  11  18
ATOM     18  O   UNK d   1       6.712   3.363  21.546  0.00  0.00    -0.390 OA
ATOM     19  H   UNK d   1       7.045   4.212  21.184  0.00  0.00     0.210 HD
ENDBRANCH  11  18
BRANCH  12  20
ATOM     20  O   UNK d   1       9.518   2.848  21.859  0.00  0.00    -0.390 OA
ATOM     21  H   UNK d   1      10.381   2.503  21.565  0.00  0.00     0.210 HD
ENDBRANCH  12  20
BRANCH  13  22
ATOM     22  O   UNK d   1      10.198   0.086  21.940  0.00  0.00    -0.388 OA
ATOM     23  H   UNK d   1      11.065   0.356  21.581  0.00  0.00     0.210 HD
ENDBRANCH  13  22
ENDBRANCH   7   8
ENDBRANCH   1   7
BRANCH   3  24
ATOM     24  O   UNK d   1       8.132  -3.368  18.189  0.00  0.00    -0.353 OA
ATOM     25  C   UNK d   1       9.247  -3.764  17.400  0.00  0.00     0.210 C 
ENDBRANCH   3  24
BRANCH   4  26
ATOM     26  C   UNK d   1       8.111  -4.931  23.685  0.00  0.00     0.090 A 
ATOM     27  O   UNK d   1       6.904  -5.406  24.186  0.00  0.00    -0.309 OA
ATOM     28  C   UNK d   1       6.828  -5.778  25.507  0.00  0.00     0.095 A 
ATOM     29  C   UNK d   1       7.901  -5.688  26.396  0.00  0.00     0.081 A 
ATOM     30  C   UNK d   1       5.594  -6.264  25.944  0.00  0.00     0.075 A 
ATOM     31  C   UNK d   1       9.178  -5.164  25.874  0.00  0.00     0.190 A 
ATOM     32  C   UNK d   1       7.729  -6.091  27.729  0.00  0.00     0.085 A 
ATOM     33  O   UNK d   1      10.193  -5.007  26.540  0.00  0.00    -0.287 OA
ATOM     34  C   UNK d   1       9.207  -4.804  24.447  0.00  0.00     0.094 A 
ATOM     35  C   UNK d   1       6.495  -6.579  28.169  0.00  0.00     0.074 A 
ATOM     36  C   UNK d   1       5.438  -6.659  27.268  0.00  0.00     0.071 A 
BRANCH  32  37
ATOM     37  O   UNK d   1       8.761  -6.014  28.620  0.00  0.00    -0.360 OA
ATOM     38  H   UNK d   1       8.596  -5.331  29.288  0.00  0.00     0.217 HD
ENDBRANCH  32  37
BRANCH  36  39
ATOM     39  O   UNK d   1       4.215  -7.126  27.651  0.00  0.00    -0.361 OA
ATOM     40  H   UNK d   1       3.520  -6.607  27.212  0.00  0.00     0.217 HD
ENDBRANCH  36  39
ENDBRANCH   4  26
TORSDOF 11
ENDMDL
MODEL 4
REMARK VINA RESULT:      -8.3      1.809      2.220
REMARK  11 active torsions:
REMARK  status: ('A' for Active; 'I' for Inactive)
REMARK    1  A    between atoms: O_2  and  C_17 
REMARK    2  A    between atoms: O_2  and  C_19 
REMARK    3  A    between atoms: O_3  and  C_13 
REMARK    4  A    between atoms: O_4  and  C_14 
REMARK    5  A    between atoms: O_5  and  C_15 
REMARK    6  A    between atoms: O_6  and  C_18 
REMARK    7  A    between atoms: O_8  and  C_21 
REMARK    8  A    between atoms: O_11  and  C_30 
REMARK    9  A    between atoms: O_12  and  C_33 
REMARK   10  A    between atoms: C_16  and  C_18 
REMARK   11  A    between atoms: C_22  and  C_25 
ROOT
ATOM      1  C   UNK d   1      10.470  -0.971  23.098  0.00  0.00     0.106 A 
ATOM      2  C   UNK d   1       9.594  -1.732  23.896  0.00  0.00     0.054 A 
ATOM      3  C   UNK d   1      11.263   0.021  23.701  0.00  0.00     0.101 A 
ATOM      4  C   UNK d   1       9.439  -1.498  25.276  0.00  0.00     0.001 A 
ATOM      5  C   UNK d   1      11.139   0.249  25.073  0.00  0.00     0.040 A 
ATOM      6  C   UNK d   1      10.235  -0.493  25.842  0.00  0.00     0.017 A 
ENDROOT
BRANCH   1   7
ATOM      7  O   UNK d   1      10.611  -1.116  21.736  0.00  0.00    -0.315 OA
BRANCH   7   8
ATOM      8  C   UNK d   1       9.427  -1.303  20.955  0.00  0.00     0.299 C 
ATOM      9  O   UNK d   1       9.494  -2.562  20.280  0.00  0.00    -0.340 OA
ATOM     10  C   UNK d   1       8.333  -2.876  19.522  0.00  0.00     0.253 C 
ATOM     11  C   UNK d   1       8.106  -1.827  18.431  0.00  0.00     0.189 C 
ATOM     12  C   UNK d   1       8.072  -0.428  19.050  0.00  0.00     0.183 C 
ATOM     13  C   UNK d   1       9.306  -0.164  19.919  0.00  0.00     0.205 C 
BRANCH  10  14
ATOM     14  C   UNK d   1       8.461  -4.265  18.873  0.00  0.00     0.172 C 
ATOM     15  O   UNK d   1       9.488  -4.737  18.414  0.00  0.00    -0.648 OA
BRANCH  14  16
ATOM     16  O   UNK d   1       7.305  -4.980  18.901  0.00  0.00    -0.774 OA
ATOM     17  H   UNK d   1       6.545  -4.482  18.515  0.00  0.00     0.167 HD
ENDBRANCH  14  16
ENDBRANCH  10  14
BRANCH  11  18
ATOM     18  O   UNK d   1       6.847  -2.070  17.771  0.00  0.00    -0.390 OA
ATOM     19  H   UNK d   1       6.917  -1.620  16.902  0.00  0.00     0.210 HD
ENDBRANCH  11  18
BRANCH  12  20
ATOM     20  O   UNK d   1       7.986   0.554  18.004  0.00  0.00    -0.390 OA
ATOM     21  H   UNK d   1       8.387   1.374  18.346  0.00  0.00     0.210 HD
ENDBRANCH  12  20
BRANCH  13  22
ATOM     22  O   UNK d   1       9.121   1.113  20.553  0.00  0.00    -0.388 OA
ATOM     23  H   UNK d   1       9.605   1.059  21.399  0.00  0.00     0.210 HD
ENDBRANCH  13  22
ENDBRANCH   7   8
ENDBRANCH   1   7
BRANCH   3  24
ATOM     24  O   UNK d   1      12.119   0.716  22.883  0.00  0.00    -0.353 OA
ATOM     25  C   UNK d   1      12.043   2.136  22.920  0.00  0.00     0.210 C 
ENDBRANCH   3  24
BRANCH   4  26
ATOM     26  C   UNK d   1       8.452  -2.285  26.076  0.00  0.00     0.090 A 
ATOM     27  O   UNK d   1       8.965  -3.438  26.662  0.00  0.00    -0.309 OA
ATOM     28  C   UNK d   1       8.133  -4.231  27.415  0.00  0.00     0.095 A 
ATOM     29  C   UNK d   1       6.778  -3.956  27.616  0.00  0.00     0.081 A 
ATOM     30  C   UNK d   1       8.711  -5.364  27.992  0.00  0.00     0.075 A 
ATOM     31  C   UNK d   1       6.226  -2.745  26.979  0.00  0.00     0.190 A 
ATOM     32  C   UNK d   1       6.006  -4.825  28.401  0.00  0.00     0.085 A 
ATOM     33  O   UNK d   1       5.056  -2.392  27.047  0.00  0.00    -0.287 OA
ATOM     34  C   UNK d   1       7.169  -1.922  26.204  0.00  0.00     0.094 A 
ATOM     35  C   UNK d   1       6.583  -5.960  28.980  0.00  0.00     0.074 A 
ATOM     36  C   UNK d   1       7.934  -6.217  28.767  0.00  0.00     0.071 A 
BRANCH  32  37
ATOM     37  O   UNK d   1       4.679  -4.581  28.614  0.00  0.00    -0.360 OA
ATOM     38  H   UNK d   1       4.434  -4.760  29.534  0.00  0.00     0.217 HD
ENDBRANCH  32  37
BRANCH  36  39
ATOM     39  O   UNK d   1       8.540  -7.312  29.309  0.00  0.00    -0.361 OA
ATOM     40  H   UNK d   1       8.287  -7.389  30.244  0.00  0.00     0.217 HD
ENDBRANCH  36  39
ENDBRANCH   4  26
TORSDOF 11
ENDMDL
MODEL 5
REMARK VINA RESULT:      -8.1     28.283     32.443
REMARK  11 active torsions:
REMARK  status: ('A' for Active; 'I' for Inactive)
REMARK    1  A    between atoms: O_2  and  C_17 
REMARK    2  A    between atoms: O_2  and  C_19 
REMARK    3  A    between atoms: O_3  and  C_13 
REMARK    4  A    between atoms: O_4  and  C_14 
REMARK    5  A    between atoms: O_5  and  C_15 
REMARK    6  A    between atoms: O_6  and  C_18 
REMARK    7  A    between atoms: O_8  and  C_21 
REMARK    8  A    between atoms: O_11  and  C_30 
REMARK    9  A    between atoms: O_12  and  C_33 
REMARK   10  A    between atoms: C_16  and  C_18 
REMARK   11  A    between atoms: C_22  and  C_25 
ROOT
ATOM      1  C   UNK d   1      19.220  -0.228  -7.499  0.00  0.00     0.106 A 
ATOM      2  C   UNK d   1      19.459   0.993  -6.839  0.00  0.00     0.054 A 
ATOM      3  C   UNK d   1      20.007  -0.576  -8.610  0.00  0.00     0.101 A 
ATOM      4  C   UNK d   1      20.428   1.911  -7.287  0.00  0.00     0.001 A 
ATOM      5  C   UNK d   1      20.988   0.313  -9.052  0.00  0.00     0.040 A 
ATOM      6  C   UNK d   1      21.186   1.538  -8.406  0.00  0.00     0.017 A 
ENDROOT
BRANCH   1   7
ATOM      7  O   UNK d   1      18.242  -1.131  -7.140  0.00  0.00    -0.315 OA
BRANCH   7   8
ATOM      8  C   UNK d   1      16.891  -0.667  -7.079  0.00  0.00     0.299 C 
ATOM      9  O   UNK d   1      16.498  -0.519  -5.712  0.00  0.00    -0.340 OA
ATOM     10  C   UNK d   1      15.186  -0.001  -5.538  0.00  0.00     0.253 C 
ATOM     11  C   UNK d   1      14.152  -0.934  -6.173  0.00  0.00     0.189 C 
ATOM     12  C   UNK d   1      14.516  -1.199  -7.634  0.00  0.00     0.183 C 
ATOM     13  C   UNK d   1      15.962  -1.683  -7.779  0.00  0.00     0.205 C 
BRANCH  10  14
ATOM     14  C   UNK d   1      14.860   0.178  -4.044  0.00  0.00     0.172 C 
ATOM     15  O   UNK d   1      15.384  -0.437  -3.130  0.00  0.00    -0.648 OA
BRANCH  14  16
ATOM     16  O   UNK d   1      13.945   1.155  -3.807  0.00  0.00    -0.774 OA
ATOM     17  H   UNK d   1      13.604   1.135  -2.881  0.00  0.00     0.167 HD
ENDBRANCH  14  16
ENDBRANCH  10  14
BRANCH  11  18
ATOM     18  O   UNK d   1      12.846  -0.325  -6.124  0.00  0.00    -0.390 OA
ATOM     19  H   UNK d   1      12.227  -1.052  -5.900  0.00  0.00     0.210 HD
ENDBRANCH  11  18
BRANCH  12  20
ATOM     20  O   UNK d   1      13.612  -2.174  -8.181  0.00  0.00    -0.390 OA
ATOM     21  H   UNK d   1      12.776  -2.101  -7.686  0.00  0.00     0.210 HD
ENDBRANCH  12  20
BRANCH  13  22
ATOM     22  O   UNK d   1      16.246  -1.780  -9.185  0.00  0.00    -0.388 OA
ATOM     23  H   UNK d   1      15.673  -1.118  -9.616  0.00  0.00     0.210 HD
ENDBRANCH  13  22
ENDBRANCH   7   8
ENDBRANCH   1   7
BRANCH   3  24
ATOM     24  O   UNK d   1      19.749  -1.789  -9.200  0.00  0.00    -0.353 OA
ATOM     25  C   UNK d   1      19.493  -1.789 -10.599  0.00  0.00     0.210 C 
ENDBRANCH   3  24
BRANCH   4  26
ATOM     26  C   UNK d   1      20.609   3.225  -6.598  0.00  0.00     0.090 A 
ATOM     27  O   UNK d   1      19.431   3.814  -6.149  0.00  0.00    -0.309 OA
ATOM     28  C   UNK d   1      19.494   5.027  -5.506  0.00  0.00     0.095 A 
ATOM     29  C   UNK d   1      20.684   5.724  -5.288  0.00  0.00     0.081 A 
ATOM     30  C   UNK d   1      18.279   5.557  -5.064  0.00  0.00     0.075 A 
ATOM     31  C   UNK d   1      21.933   5.112  -5.780  0.00  0.00     0.190 A 
ATOM     32  C   UNK d   1      20.649   6.957  -4.620  0.00  0.00     0.085 A 
ATOM     33  O   UNK d   1      23.044   5.616  -5.681  0.00  0.00    -0.287 OA
ATOM     34  C   UNK d   1      21.808   3.802  -6.440  0.00  0.00     0.094 A 
ATOM     35  C   UNK d   1      19.436   7.490  -4.176  0.00  0.00     0.074 A 
ATOM     36  C   UNK d   1      18.260   6.781  -4.405  0.00  0.00     0.071 A 
BRANCH  32  37
ATOM     37  O   UNK d   1      21.798   7.660  -4.394  0.00  0.00    -0.360 OA
ATOM     38  H   UNK d   1      21.918   7.838  -3.449  0.00  0.00     0.217 HD
ENDBRANCH  32  37
BRANCH  36  39
ATOM     39  O   UNK d   1      17.052   7.261  -3.993  0.00  0.00    -0.361 OA
ATOM     40  H   UNK d   1      16.873   6.947  -3.091  0.00  0.00     0.217 HD
ENDBRANCH  36  39
ENDBRANCH   4  26
TORSDOF 11
ENDMDL
MODEL 6
REMARK VINA RESULT:      -7.8     15.848     19.177
REMARK  11 active torsions:
REMARK  status: ('A' for Active; 'I' for Inactive)
REMARK    1  A    between atoms: O_2  and  C_17 
REMARK    2  A    between atoms: O_2  and  C_19 
REMARK    3  A    between atoms: O_3  and  C_13 
REMARK    4  A    between atoms: O_4  and  C_14 
REMARK    5  A    between atoms: O_5  and  C_15 
REMARK    6  A    between atoms: O_6  and  C_18 
REMARK    7  A    between atoms: O_8  and  C_21 
REMARK    8  A    between atoms: O_11  and  C_30 
REMARK    9  A    between atoms: O_12  and  C_33 
REMARK   10  A    between atoms: C_16  and  C_18 
REMARK   11  A    between atoms: C_22  and  C_25 
ROOT
ATOM      1  C   UNK d   1      25.955  -4.198  20.608  0.00  0.00     0.106 A 
ATOM      2  C   UNK d   1      25.835  -3.164  19.658  0.00  0.00     0.054 A 
ATOM      3  C   UNK d   1      25.838  -5.534  20.189  0.00  0.00     0.101 A 
ATOM      4  C   UNK d   1      25.546  -3.419  18.304  0.00  0.00     0.001 A 
ATOM      5  C   UNK d   1      25.574  -5.803  18.845  0.00  0.00     0.040 A 
ATOM      6  C   UNK d   1      25.421  -4.762  17.923  0.00  0.00     0.017 A 
ENDROOT
BRANCH   1   7
ATOM      7  O   UNK d   1      26.174  -3.999  21.953  0.00  0.00    -0.315 OA
BRANCH   7   8
ATOM      8  C   UNK d   1      25.065  -3.592  22.761  0.00  0.00     0.299 C 
ATOM      9  O   UNK d   1      25.231  -2.224  23.144  0.00  0.00    -0.340 OA
ATOM     10  C   UNK d   1      24.148  -1.699  23.901  0.00  0.00     0.253 C 
ATOM     11  C   UNK d   1      23.975  -2.481  25.204  0.00  0.00     0.189 C 
ATOM     12  C   UNK d   1      23.842  -3.975  24.903  0.00  0.00     0.183 C 
ATOM     13  C   UNK d   1      24.990  -4.480  24.023  0.00  0.00     0.205 C 
BRANCH  10  14
ATOM     14  C   UNK d   1      24.377  -0.212  24.226  0.00  0.00     0.172 C 
ATOM     15  O   UNK d   1      24.190   0.715  23.455  0.00  0.00    -0.648 OA
BRANCH  14  16
ATOM     16  O   UNK d   1      24.768   0.003  25.510  0.00  0.00    -0.774 OA
ATOM     17  H   UNK d   1      24.487  -0.724  26.116  0.00  0.00     0.167 HD
ENDBRANCH  14  16
ENDBRANCH  10  14
BRANCH  11  18
ATOM     18  O   UNK d   1      22.785  -2.040  25.887  0.00  0.00    -0.390 OA
ATOM     19  H   UNK d   1      22.487  -1.241  25.403  0.00  0.00     0.210 HD
ENDBRANCH  11  18
BRANCH  12  20
ATOM     20  O   UNK d   1      23.809  -4.709  26.138  0.00  0.00    -0.390 OA
ATOM     21  H   UNK d   1      22.904  -4.632  26.494  0.00  0.00     0.210 HD
ENDBRANCH  12  20
BRANCH  13  22
ATOM     22  O   UNK d   1      24.710  -5.850  23.692  0.00  0.00    -0.388 OA
ATOM     23  H   UNK d   1      25.572  -6.308  23.714  0.00  0.00     0.210 HD
ENDBRANCH  13  22
ENDBRANCH   7   8
ENDBRANCH   1   7
BRANCH   3  24
ATOM     24  O   UNK d   1      25.987  -6.502  21.151  0.00  0.00    -0.353 OA
ATOM     25  C   UNK d   1      26.412  -7.789  20.717  0.00  0.00     0.210 C 
ENDBRANCH   3  24
BRANCH   4  26
ATOM     26  C   UNK d   1      25.364  -2.292  17.339  0.00  0.00     0.090 A 
ATOM     27  O   UNK d   1      25.583  -1.026  17.874  0.00  0.00    -0.309 OA
ATOM     28  C   UNK d   1      25.437   0.076  17.065  0.00  0.00     0.095 A 
ATOM     29  C   UNK d   1      25.057   0.002  15.723  0.00  0.00     0.081 A 
ATOM     30  C   UNK d   1      25.688   1.315  17.657  0.00  0.00     0.075 A 
ATOM     31  C   UNK d   1      24.803  -1.337  15.158  0.00  0.00     0.190 A 
ATOM     32  C   UNK d   1      24.932   1.183  14.976  0.00  0.00     0.085 A 
ATOM     33  O   UNK d   1      24.443  -1.553  14.008  0.00  0.00    -0.287 OA
ATOM     34  C   UNK d   1      24.999  -2.481  16.064  0.00  0.00     0.094 A 
ATOM     35  C   UNK d   1      25.184   2.425  15.564  0.00  0.00     0.074 A 
ATOM     36  C   UNK d   1      25.560   2.477  16.904  0.00  0.00     0.071 A 
BRANCH  32  37
ATOM     37  O   UNK d   1      24.563   1.141  13.662  0.00  0.00    -0.360 OA
ATOM     38  H   UNK d   1      24.776   1.972  13.212  0.00  0.00     0.217 HD
ENDBRANCH  32  37
BRANCH  36  39
ATOM     39  O   UNK d   1      25.814   3.666  17.522  0.00  0.00    -0.361 OA
ATOM     40  H   UNK d   1      25.836   3.529  18.484  0.00  0.00     0.217 HD
ENDBRANCH  36  39
ENDBRANCH   4  26
TORSDOF 11
ENDMDL
MODEL 7
REMARK VINA RESULT:      -7.8      2.867      4.976
REMARK  11 active torsions:
REMARK  status: ('A' for Active; 'I' for Inactive)
REMARK    1  A    between atoms: O_2  and  C_17 
REMARK    2  A    between atoms: O_2  and  C_19 
REMARK    3  A    between atoms: O_3  and  C_13 
REMARK    4  A    between atoms: O_4  and  C_14 
REMARK    5  A    between atoms: O_5  and  C_15 
REMARK    6  A    between atoms: O_6  and  C_18 
REMARK    7  A    between atoms: O_8  and  C_21 
REMARK    8  A    between atoms: O_11  and  C_30 
REMARK    9  A    between atoms: O_12  and  C_33 
REMARK   10  A    between atoms: C_16  and  C_18 
REMARK   11  A    between atoms: C_22  and  C_25 
ROOT
ATOM      1  C   UNK d   1       7.927  -4.242  23.962  0.00  0.00     0.106 A 
ATOM      2  C   UNK d   1       6.796  -5.007  23.616  0.00  0.00     0.054 A 
ATOM      3  C   UNK d   1       8.104  -3.840  25.297  0.00  0.00     0.101 A 
ATOM      4  C   UNK d   1       5.800  -5.341  24.553  0.00  0.00     0.001 A 
ATOM      5  C   UNK d   1       7.136  -4.182  26.243  0.00  0.00     0.040 A 
ATOM      6  C   UNK d   1       6.001  -4.911  25.872  0.00  0.00     0.017 A 
ENDROOT
BRANCH   1   7
ATOM      7  O   UNK d   1       8.897  -3.836  23.071  0.00  0.00    -0.315 OA
BRANCH   7   8
ATOM      8  C   UNK d   1       8.672  -2.627  22.339  0.00  0.00     0.299 C 
ATOM      9  O   UNK d   1       8.172  -2.944  21.037  0.00  0.00    -0.340 OA
ATOM     10  C   UNK d   1       7.855  -1.807  20.246  0.00  0.00     0.253 C 
ATOM     11  C   UNK d   1       9.100  -0.946  20.020  0.00  0.00     0.189 C 
ATOM     12  C   UNK d   1       9.743  -0.595  21.362  0.00  0.00     0.183 C 
ATOM     13  C   UNK d   1       9.997  -1.845  22.212  0.00  0.00     0.205 C 
BRANCH  10  14
ATOM     14  C   UNK d   1       7.275  -2.231  18.884  0.00  0.00     0.172 C 
ATOM     15  O   UNK d   1       7.257  -1.539  17.879  0.00  0.00    -0.648 OA
BRANCH  14  16
ATOM     16  O   UNK d   1       6.815  -3.510  18.871  0.00  0.00    -0.774 OA
ATOM     17  H   UNK d   1       6.981  -3.961  18.009  0.00  0.00     0.167 HD
ENDBRANCH  14  16
ENDBRANCH  10  14
BRANCH  11  18
ATOM     18  O   UNK d   1       8.735   0.277  19.349  0.00  0.00    -0.390 OA
ATOM     19  H   UNK d   1       8.363   0.857  20.047  0.00  0.00     0.210 HD
ENDBRANCH  11  18
BRANCH  12  20
ATOM     20  O   UNK d   1      10.978   0.103  21.131  0.00  0.00    -0.390 OA
ATOM     21  H   UNK d   1      11.265  -0.112  20.225  0.00  0.00     0.210 HD
ENDBRANCH  12  20
BRANCH  13  22
ATOM     22  O   UNK d   1      10.479  -1.406  23.493  0.00  0.00    -0.388 OA
ATOM     23  H   UNK d   1      11.419  -1.177  23.356  0.00  0.00     0.210 HD
ENDBRANCH  13  22
ENDBRANCH   7   8
ENDBRANCH   1   7
BRANCH   3  24
ATOM     24  O   UNK d   1       9.235  -3.117  25.584  0.00  0.00    -0.353 OA
ATOM     25  C   UNK d   1       9.143  -2.151  26.624  0.00  0.00     0.210 C 
ENDBRANCH   3  24
BRANCH   4  26
ATOM     26  C   UNK d   1       4.583  -6.101  24.134  0.00  0.00     0.090 A 
ATOM     27  O   UNK d   1       3.651  -5.358  23.417  0.00  0.00    -0.309 OA
ATOM     28  C   UNK d   1       2.496  -5.967  22.990  0.00  0.00     0.095 A 
ATOM     29  C   UNK d   1       2.187  -7.304  23.252  0.00  0.00     0.081 A 
ATOM     30  C   UNK d   1       1.609  -5.172  22.260  0.00  0.00     0.075 A 
ATOM     31  C   UNK d   1       3.164  -8.090  24.030  0.00  0.00     0.190 A 
ATOM     32  C   UNK d   1       0.982  -7.840  22.775  0.00  0.00     0.085 A 
ATOM     33  O   UNK d   1       3.018  -9.261  24.355  0.00  0.00    -0.287 OA
ATOM     34  C   UNK d   1       4.393  -7.391  24.441  0.00  0.00     0.094 A 
ATOM     35  C   UNK d   1       0.093  -7.048  22.043  0.00  0.00     0.074 A 
ATOM     36  C   UNK d   1       0.418  -5.718  21.794  0.00  0.00     0.071 A 
BRANCH  32  37
ATOM     37  O   UNK d   1       0.654  -9.144  23.017  0.00  0.00    -0.360 OA
ATOM     38  H   UNK d   1       1.353  -9.742  22.713  0.00  0.00     0.217 HD
ENDBRANCH  32  37
BRANCH  36  39
ATOM     39  O   UNK d   1      -0.418  -4.905  21.087  0.00  0.00    -0.361 OA
ATOM     40  H   UNK d   1       0.067  -4.110  20.808  0.00  0.00     0.217 HD
ENDBRANCH  36  39
ENDBRANCH   4  26
TORSDOF 11
ENDMDL
MODEL 8
REMARK VINA RESULT:      -7.7     29.131     31.768
REMARK  11 active torsions:
REMARK  status: ('A' for Active; 'I' for Inactive)
REMARK    1  A    between atoms: O_2  and  C_17 
REMARK    2  A    between atoms: O_2  and  C_19 
REMARK    3  A    between atoms: O_3  and  C_13 
REMARK    4  A    between atoms: O_4  and  C_14 
REMARK    5  A    between atoms: O_5  and  C_15 
REMARK    6  A    between atoms: O_6  and  C_18 
REMARK    7  A    between atoms: O_8  and  C_21 
REMARK    8  A    between atoms: O_11  and  C_30 
REMARK    9  A    between atoms: O_12  and  C_33 
REMARK   10  A    between atoms: C_16  and  C_18 
REMARK   11  A    between atoms: C_22  and  C_25 
ROOT
ATOM      1  C   UNK d   1      18.359  -1.301  -7.564  0.00  0.00     0.106 A 
ATOM      2  C   UNK d   1      18.626  -0.223  -6.697  0.00  0.00     0.054 A 
ATOM      3  C   UNK d   1      19.142  -1.464  -8.720  0.00  0.00     0.101 A 
ATOM      4  C   UNK d   1      19.619   0.736  -6.975  0.00  0.00     0.001 A 
ATOM      5  C   UNK d   1      20.146  -0.535  -8.997  0.00  0.00     0.040 A 
ATOM      6  C   UNK d   1      20.371   0.551  -8.143  0.00  0.00     0.017 A 
ENDROOT
BRANCH   1   7
ATOM      7  O   UNK d   1      17.359  -2.228  -7.371  0.00  0.00    -0.315 OA
BRANCH   7   8
ATOM      8  C   UNK d   1      16.027  -1.747  -7.172  0.00  0.00     0.299 C 
ATOM      9  O   UNK d   1      16.036  -0.710  -6.187  0.00  0.00    -0.340 OA
ATOM     10  C   UNK d   1      14.765  -0.117  -5.958  0.00  0.00     0.253 C 
ATOM     11  C   UNK d   1      13.767  -1.163  -5.456  0.00  0.00     0.189 C 
ATOM     12  C   UNK d   1      13.723  -2.348  -6.422  0.00  0.00     0.183 C 
ATOM     13  C   UNK d   1      15.123  -2.906  -6.698  0.00  0.00     0.205 C 
BRANCH  10  14
ATOM     14  C   UNK d   1      14.869   1.022  -4.928  0.00  0.00     0.172 C 
ATOM     15  O   UNK d   1      14.051   1.259  -4.054  0.00  0.00    -0.648 OA
BRANCH  14  16
ATOM     16  O   UNK d   1      16.018   1.741  -5.036  0.00  0.00    -0.774 OA
ATOM     17  H   UNK d   1      16.689   1.480  -4.362  0.00  0.00     0.167 HD
ENDBRANCH  14  16
ENDBRANCH  10  14
BRANCH  11  18
ATOM     18  O   UNK d   1      12.449  -0.584  -5.374  0.00  0.00    -0.390 OA
ATOM     19  H   UNK d   1      11.840  -1.340  -5.232  0.00  0.00     0.210 HD
ENDBRANCH  11  18
BRANCH  12  20
ATOM     20  O   UNK d   1      12.881  -3.377  -5.877  0.00  0.00    -0.390 OA
ATOM     21  H   UNK d   1      12.489  -3.023  -5.057  0.00  0.00     0.210 HD
ENDBRANCH  12  20
BRANCH  13  22
ATOM     22  O   UNK d   1      14.992  -3.923  -7.706  0.00  0.00    -0.388 OA
ATOM     23  H   UNK d   1      15.782  -3.836  -8.272  0.00  0.00     0.210 HD
ENDBRANCH  13  22
ENDBRANCH   7   8
ENDBRANCH   1   7
BRANCH   3  24
ATOM     24  O   UNK d   1      18.856  -2.545  -9.516  0.00  0.00    -0.353 OA
ATOM     25  C   UNK d   1      18.621  -2.291 -10.896  0.00  0.00     0.210 C 
ENDBRANCH   3  24
BRANCH   4  26
ATOM     26  C   UNK d   1      19.830   1.901  -6.062  0.00  0.00     0.090 A 
ATOM     27  O   UNK d   1      18.780   2.813  -6.032  0.00  0.00    -0.309 OA
ATOM     28  C   UNK d   1      18.881   3.921  -5.225  0.00  0.00     0.095 A 
ATOM     29  C   UNK d   1      19.999   4.201  -4.435  0.00  0.00     0.081 A 
ATOM     30  C   UNK d   1      17.787   4.789  -5.224  0.00  0.00     0.075 A 
ATOM     31  C   UNK d   1      21.123   3.246  -4.481  0.00  0.00     0.190 A 
ATOM     32  C   UNK d   1      20.012   5.358  -3.642  0.00  0.00     0.085 A 
ATOM     33  O   UNK d   1      22.172   3.372  -3.863  0.00  0.00    -0.287 OA
ATOM     34  C   UNK d   1      20.949   2.066  -5.344  0.00  0.00     0.094 A 
ATOM     35  C   UNK d   1      18.918   6.229  -3.639  0.00  0.00     0.074 A 
ATOM     36  C   UNK d   1      17.815   5.933  -4.434  0.00  0.00     0.071 A 
BRANCH  32  37
ATOM     37  O   UNK d   1      21.092   5.657  -2.861  0.00  0.00    -0.360 OA
ATOM     38  H   UNK d   1      21.435   6.540  -3.062  0.00  0.00     0.217 HD
ENDBRANCH  32  37
BRANCH  36  39
ATOM     39  O   UNK d   1      16.726   6.753  -4.466  0.00  0.00    -0.361 OA
ATOM     40  H   UNK d   1      16.015   6.324  -4.974  0.00  0.00     0.217 HD
ENDBRANCH  36  39
ENDBRANCH   4  26
TORSDOF 11
ENDMDL
MODEL 9
REMARK VINA RESULT:      -7.7     29.118     31.949
REMARK  11 active torsions:
REMARK  status: ('A' for Active; 'I' for Inactive)
REMARK    1  A    between atoms: O_2  and  C_17 
REMARK    2  A    between atoms: O_2  and  C_19 
REMARK    3  A    between atoms: O_3  and  C_13 
REMARK    4  A    between atoms: O_4  and  C_14 
REMARK    5  A    between atoms: O_5  and  C_15 
REMARK    6  A    between atoms: O_6  and  C_18 
REMARK    7  A    between atoms: O_8  and  C_21 
REMARK    8  A    between atoms: O_11  and  C_30 
REMARK    9  A    between atoms: O_12  and  C_33 
REMARK   10  A    between atoms: C_16  and  C_18 
REMARK   11  A    between atoms: C_22  and  C_25 
ROOT
ATOM      1  C   UNK d   1      17.848  -1.449  -7.521  0.00  0.00     0.106 A 
ATOM      2  C   UNK d   1      18.162  -0.100  -7.262  0.00  0.00     0.054 A 
ATOM      3  C   UNK d   1      18.731  -2.455  -7.094  0.00  0.00     0.101 A 
ATOM      4  C   UNK d   1      19.363   0.284  -6.636  0.00  0.00     0.001 A 
ATOM      5  C   UNK d   1      19.915  -2.091  -6.451  0.00  0.00     0.040 A 
ATOM      6  C   UNK d   1      20.228  -0.744  -6.237  0.00  0.00     0.017 A 
ENDROOT
BRANCH   1   7
ATOM      7  O   UNK d   1      16.718  -1.874  -8.185  0.00  0.00    -0.315 OA
BRANCH   7   8
ATOM      8  C   UNK d   1      15.446  -1.452  -7.683  0.00  0.00     0.299 C 
ATOM      9  O   UNK d   1      15.639  -0.536  -6.602  0.00  0.00    -0.340 OA
ATOM     10  C   UNK d   1      14.433  -0.006  -6.069  0.00  0.00     0.253 C 
ATOM     11  C   UNK d   1      13.552  -1.128  -5.516  0.00  0.00     0.189 C 
ATOM     12  C   UNK d   1      13.329  -2.195  -6.589  0.00  0.00     0.183 C 
ATOM     13  C   UNK d   1      14.653  -2.681  -7.188  0.00  0.00     0.205 C 
BRANCH  10  14
ATOM     14  C   UNK d   1      14.727   1.009  -4.950  0.00  0.00     0.172 C 
ATOM     15  O   UNK d   1      13.989   1.255  -4.010  0.00  0.00    -0.648 OA
BRANCH  14  16
ATOM     16  O   UNK d   1      15.948   1.596  -5.065  0.00  0.00    -0.774 OA
ATOM     17  H   UNK d   1      15.916   2.435  -5.583  0.00  0.00     0.167 HD
ENDBRANCH  14  16
ENDBRANCH  10  14
BRANCH  11  18
ATOM     18  O   UNK d   1      12.272  -0.597  -5.119  0.00  0.00    -0.390 OA
ATOM     19  H   UNK d   1      11.778  -1.357  -4.745  0.00  0.00     0.210 HD
ENDBRANCH  11  18
BRANCH  12  20
ATOM     20  O   UNK d   1      12.609  -3.301  -6.020  0.00  0.00    -0.390 OA
ATOM     21  H   UNK d   1      13.078  -3.561  -5.205  0.00  0.00     0.210 HD
ENDBRANCH  12  20
BRANCH  13  22
ATOM     22  O   UNK d   1      14.335  -3.578  -8.265  0.00  0.00    -0.388 OA
ATOM     23  H   UNK d   1      15.171  -4.032  -8.485  0.00  0.00     0.210 HD
ENDBRANCH  13  22
ENDBRANCH   7   8
ENDBRANCH   1   7
BRANCH   3  24
ATOM     24  O   UNK d   1      18.365  -3.753  -7.349  0.00  0.00    -0.353 OA
ATOM     25  C   UNK d   1      17.948  -4.541  -6.240  0.00  0.00     0.210 C 
ENDBRANCH   3  24
BRANCH   4  26
ATOM     26  C   UNK d   1      19.689   1.729  -6.436  0.00  0.00     0.090 A 
ATOM     27  O   UNK d   1      18.639   2.500  -5.948  0.00  0.00    -0.309 OA
ATOM     28  C   UNK d   1      18.840   3.843  -5.734  0.00  0.00     0.095 A 
ATOM     29  C   UNK d   1      20.046   4.494  -6.000  0.00  0.00     0.081 A 
ATOM     30  C   UNK d   1      17.753   4.559  -5.226  0.00  0.00     0.075 A 
ATOM     31  C   UNK d   1      21.156   3.684  -6.537  0.00  0.00     0.190 A 
ATOM     32  C   UNK d   1      20.158   5.871  -5.750  0.00  0.00     0.085 A 
ATOM     33  O   UNK d   1      22.259   4.121  -6.838  0.00  0.00    -0.287 OA
ATOM     34  C   UNK d   1      20.891   2.248  -6.723  0.00  0.00     0.094 A 
ATOM     35  C   UNK d   1      19.072   6.589  -5.240  0.00  0.00     0.074 A 
ATOM     36  C   UNK d   1      17.878   5.922  -4.984  0.00  0.00     0.071 A 
BRANCH  32  37
ATOM     37  O   UNK d   1      21.325   6.533  -6.000  0.00  0.00    -0.360 OA
ATOM     38  H   UNK d   1      21.953   5.967  -6.474  0.00  0.00     0.217 HD
ENDBRANCH  32  37
BRANCH  36  39
ATOM     39  O   UNK d   1      16.791   6.581  -4.489  0.00  0.00    -0.361 OA
ATOM     40  H   UNK d   1      16.932   6.769  -3.546  0.00  0.00     0.217 HD
ENDBRANCH  36  39
ENDBRANCH   4  26
TORSDOF 11
ENDMDL
