REMARK  10 active torsions:
REMARK  status: ('A' for Active; 'I' for Inactive)
REMARK       I    between atoms: N_6  and  C_20 
REMARK    1  A    between atoms: N_6  and  C_21 
REMARK    2  A    between atoms: N_6  and  C_24 
REMARK    3  A    between atoms: N_7  and  C_14 
REMARK    4  A    between atoms: N_7  and  C_22 
REMARK    5  A    between atoms: N_9  and  C_35 
REMARK    6  A    between atoms: C_12  and  C_14 
REMARK    7  A    between atoms: C_15  and  C_20 
REMARK    8  A    between atoms: C_21  and  C_23 
REMARK    9  A    between atoms: C_23  and  C_31 
REMARK   10  A    between atoms: C_30  and  C_35 
ROOT
ATOM      1  N   LIG d   1       1.388  15.332  -7.550  0.00  0.00    -0.337 N 
ATOM      2  N   LIG d   1       2.905  14.822  -9.085  0.00  0.00    -0.232 NA
ATOM      3  C   LIG d   1       1.310  16.333  -8.491  0.00  0.00     0.064 A 
ATOM      4  C   LIG d   1       2.400  14.472  -7.917  0.00  0.00     0.120 A 
ATOM      5  C   LIG d   1       2.243  15.966  -9.458  0.00  0.00     0.086 A 
ATOM      6  C   LIG d   1       1.627  17.915 -10.744  0.00  0.00     0.035 A 
ATOM      7  C   LIG d   1       2.388  16.741 -10.618  0.00  0.00     0.051 A 
ATOM      8  C   LIG d   1       0.519  17.482  -8.604  0.00  0.00     0.033 A 
ATOM      9  C   LIG d   1       0.701  18.266  -9.748  0.00  0.00     0.019 A 
ATOM     10  C   LIG d   1       0.534  15.183  -6.398  0.00  0.00     0.158 C 
ENDROOT
BRANCH   4  11
ATOM     11  C   LIG d   1       2.841  13.286  -7.109  0.00  0.00     0.171 C 
BRANCH  11  12
ATOM     12  N   LIG d   1       3.940  13.599  -6.198  0.00  0.00    -0.286 NA
ATOM     13  H   LIG d   1       4.826  13.509  -6.700  0.00  0.00     0.128 HD
BRANCH  12  14
ATOM     14  C   LIG d   1       3.888  14.786  -5.456  0.00  0.00     0.008 A 
ATOM     15  C   LIG d   1       4.669  15.910  -5.754  0.00  0.00     0.024 A 
ATOM     16  C   LIG d   1       4.526  17.106  -5.038  0.00  0.00     0.017 A 
ATOM     17  C   LIG d   1       3.573  17.209  -4.020  0.00  0.00     0.009 A 
ATOM     18  C   LIG d   1       2.751  16.114  -3.750  0.00  0.00     0.017 A 
ATOM     19  C   LIG d   1       2.903  14.923  -4.469  0.00  0.00     0.024 A 
BRANCH  17  20
ATOM     20  C   LIG d   1       3.433  18.460  -3.236  0.00  0.00     0.123 C 
ATOM     21  N   LIG d   1       2.249  18.788  -2.761  0.00  0.00    -0.284 NA
ATOM     22  H   LIG d   1       2.219  19.665  -2.228  0.00  0.00     0.188 HD
BRANCH  20  23
ATOM     23  N   LIG d   1       4.420  19.228  -2.984  0.00  0.00    -0.384 N 
ATOM     24  H   LIG d   1       5.098  18.899  -2.306  0.00  0.00     0.157 HD
ATOM     25  H   LIG d   1       4.557  20.103  -3.472  0.00  0.00     0.157 HD
ENDBRANCH  20  23
ENDBRANCH  17  20
ENDBRANCH  12  14
ENDBRANCH  11  12
ENDBRANCH   4  11
BRANCH   6  26
ATOM     26  C   LIG d   1       1.675  18.759 -11.976  0.00  0.00     0.259 C 
ATOM     27  O   LIG d   1       2.456  19.717 -11.950  0.00  0.00    -0.267 OA
ATOM     28  N   LIG d   1       0.796  18.519 -13.041  0.00  0.00    -0.298 N 
BRANCH  28  29
ATOM     29  C   LIG d   1       0.574  19.628 -13.986  0.00  0.00     0.144 C 
BRANCH  29  30
ATOM     30  C   LIG d   1      -0.412  20.669 -13.467  0.00  0.00     0.133 C 
BRANCH  30  31
ATOM     31  C   LIG d   1      -1.192  21.374 -14.565  0.00  0.00     0.174 C 
ATOM     32  O   LIG d   1      -1.983  20.637 -15.217  0.00  0.00    -0.648 OA
ATOM     33  O   LIG d   1      -0.985  22.615 -14.683  0.00  0.00    -0.648 OA
ENDBRANCH  30  31
ENDBRANCH  29  30
ENDBRANCH  28  29
BRANCH  28  34
ATOM     34  C   LIG d   1       0.409  17.200 -13.425  0.00  0.00     0.132 A 
ATOM     35  N   LIG d   1       1.302  16.194 -13.247  0.00  0.00    -0.243 NA
ATOM     36  C   LIG d   1       0.944  14.945 -13.620  0.00  0.00     0.119 A 
ATOM     37  C   LIG d   1      -0.277  14.625 -14.181  0.00  0.00     0.019 A 
ATOM     38  C   LIG d   1      -1.188  15.652 -14.363  0.00  0.00     0.005 A 
ATOM     39  C   LIG d   1      -0.843  16.949 -13.983  0.00  0.00     0.051 A 
ENDBRANCH  28  34
ENDBRANCH   6  26
TORSDOF 10
