MODEL 1
REMARK VINA RESULT:      -7.4      0.000      0.000
REMARK  8 active torsions:
REMARK  status: ('A' for Active; 'I' for Inactive)
REMARK    1  A    between atoms: S_1  and  N_7 
REMARK    2  A    between atoms: S_1  and  C_11 
REMARK    3  A    between atoms: O_4  and  C_22 
REMARK    4  A    between atoms: N_7  and  C_17 
REMARK    5  A    between atoms: N_8  and  N_10 
REMARK    6  A    between atoms: N_8  and  C_14 
REMARK    7  A    between atoms: N_10  and  C_18 
REMARK    8  A    between atoms: C_20  and  C_28 
ROOT
ATOM      1  C   LIG d   1      19.822   1.624  -3.396  0.00  0.00     0.075 A 
ATOM      2  C   LIG d   1      19.836   0.886  -4.577  0.00  0.00     0.027 A 
ATOM      3  C   LIG d   1      19.855   0.983  -2.158  0.00  0.00     0.027 A 
ATOM      4  C   LIG d   1      19.849  -1.193  -3.281  0.00  0.00     0.079 A 
ATOM      5  C   LIG d   1      19.843  -0.511  -4.508  0.00  0.00     0.035 A 
ATOM      6  C   LIG d   1      19.858  -0.412  -2.115  0.00  0.00     0.035 A 
ENDROOT
BRANCH   4   7
ATOM      7  N   LIG d   1      19.822  -2.539  -3.138  0.00  0.00    -0.150 NA
BRANCH   7   8
ATOM      8  N   LIG d   1      18.635  -3.084  -2.436  0.00  0.00    -0.150 NA
BRANCH   8   9
ATOM      9  C   LIG d   1      17.675  -3.632  -3.235  0.00  0.00     0.080 A 
ATOM     10  C   LIG d   1      16.754  -2.783  -3.908  0.00  0.00     0.054 A 
ATOM     11  C   LIG d   1      15.719  -3.262  -4.754  0.00  0.00     0.076 A 
ATOM     12  C   LIG d   1      15.617  -4.655  -4.909  0.00  0.00     0.082 A 
ATOM     13  C   LIG d   1      16.490  -5.522  -4.262  0.00  0.00     0.040 A 
ATOM     14  C   LIG d   1      17.501  -5.010  -3.438  0.00  0.00     0.036 A 
BRANCH  11  15
ATOM     15  C   LIG d   1      14.757  -2.333  -5.469  0.00  0.00     0.212 C 
ATOM     16  O   LIG d   1      15.205  -1.151  -5.728  0.00  0.00    -0.644 OA
ATOM     17  O   LIG d   1      13.586  -2.720  -5.791  0.00  0.00    -0.644 OA
ENDBRANCH  11  15
BRANCH  12  18
ATOM     18  O   LIG d   1      14.649  -5.228  -5.708  0.00  0.00    -0.360 OA
ATOM     19  H   LIG d   1      13.843  -5.228  -5.124  0.00  0.00     0.217 HD
ENDBRANCH  12  18
ENDBRANCH   8   9
ENDBRANCH   7   8
ENDBRANCH   4   7
BRANCH   1  20
ATOM     20  S   LIG d   1      19.759   3.387  -3.449  0.00  0.00     0.247 S 
ATOM     21  O   LIG d   1      19.584   3.888  -2.096  0.00  0.00    -0.205 OA
ATOM     22  O   LIG d   1      20.841   3.905  -4.265  0.00  0.00    -0.205 OA
BRANCH  20  23
ATOM     23  N   LIG d   1      18.282   3.706  -4.236  0.00  0.00    -0.165 NA
ATOM     24  H   LIG d   1      17.918   2.811  -4.568  0.00  0.00     0.147 HD
BRANCH  23  25
ATOM     25  C   LIG d   1      18.378   4.534  -5.376  0.00  0.00     0.116 C 
ATOM     26  N   LIG d   1      18.529   5.821  -5.030  0.00  0.00    -0.248 NA
ATOM     27  C   LIG d   1      18.502   6.714  -6.043  0.00  0.00     0.118 C 
ATOM     28  C   LIG d   1      18.449   6.357  -7.382  0.00  0.00     0.019 C 
ATOM     29  C   LIG d   1      18.400   5.005  -7.703  0.00  0.00     0.005 C 
ATOM     30  C   LIG d   1      18.360   4.067  -6.678  0.00  0.00     0.045 C 
ENDBRANCH  23  25
ENDBRANCH  20  23
ENDBRANCH   1  20
TORSDOF 8
ENDMDL
MODEL 2
REMARK VINA RESULT:      -7.3     18.576     22.882
REMARK  8 active torsions:
REMARK  status: ('A' for Active; 'I' for Inactive)
REMARK    1  A    between atoms: S_1  and  N_7 
REMARK    2  A    between atoms: S_1  and  C_11 
REMARK    3  A    between atoms: O_4  and  C_22 
REMARK    4  A    between atoms: N_7  and  C_17 
REMARK    5  A    between atoms: N_8  and  N_10 
REMARK    6  A    between atoms: N_8  and  C_14 
REMARK    7  A    between atoms: N_10  and  C_18 
REMARK    8  A    between atoms: C_20  and  C_28 
ROOT
ATOM      1  C   LIG d   1       9.094  16.073   2.404  0.00  0.00     0.075 A 
ATOM      2  C   LIG d   1       8.208  17.053   2.845  0.00  0.00     0.027 A 
ATOM      3  C   LIG d   1       9.788  16.230   1.205  0.00  0.00     0.027 A 
ATOM      4  C   LIG d   1       8.649  18.364   0.823  0.00  0.00     0.079 A 
ATOM      5  C   LIG d   1       7.990  18.182   2.050  0.00  0.00     0.035 A 
ATOM      6  C   LIG d   1       9.551  17.365   0.427  0.00  0.00     0.035 A 
ENDROOT
BRANCH   4   7
ATOM      7  N   LIG d   1       8.463  19.413  -0.012  0.00  0.00    -0.150 NA
BRANCH   7   8
ATOM      8  N   LIG d   1       9.641  20.295  -0.202  0.00  0.00    -0.150 NA
BRANCH   8   9
ATOM      9  C   LIG d   1       9.365  21.574  -0.586  0.00  0.00     0.080 A 
ATOM     10  C   LIG d   1       8.285  21.823  -1.476  0.00  0.00     0.054 A 
ATOM     11  C   LIG d   1       7.928  23.119  -1.934  0.00  0.00     0.076 A 
ATOM     12  C   LIG d   1       8.707  24.194  -1.475  0.00  0.00     0.082 A 
ATOM     13  C   LIG d   1       9.778  23.995  -0.611  0.00  0.00     0.040 A 
ATOM     14  C   LIG d   1      10.097  22.701  -0.179  0.00  0.00     0.036 A 
BRANCH  11  15
ATOM     15  C   LIG d   1       6.762  23.357  -2.876  0.00  0.00     0.212 C 
ATOM     16  O   LIG d   1       6.843  22.778  -4.026  0.00  0.00    -0.644 OA
ATOM     17  O   LIG d   1       5.773  24.079  -2.528  0.00  0.00    -0.644 OA
ENDBRANCH  11  15
BRANCH  12  18
ATOM     18  O   LIG d   1       8.448  25.494  -1.855  0.00  0.00    -0.360 OA
ATOM     19  H   LIG d   1       9.340  25.829  -2.141  0.00  0.00     0.217 HD
ENDBRANCH  12  18
ENDBRANCH   8   9
ENDBRANCH   7   8
ENDBRANCH   4   7
BRANCH   1  20
ATOM     20  S   LIG d   1       9.350  14.610   3.360  0.00  0.00     0.247 S 
ATOM     21  O   LIG d   1      10.777  14.346   3.434  0.00  0.00    -0.205 OA
ATOM     22  O   LIG d   1       8.573  14.665   4.584  0.00  0.00    -0.205 OA
BRANCH  20  23
ATOM     23  N   LIG d   1       8.720  13.376   2.368  0.00  0.00    -0.165 NA
ATOM     24  H   LIG d   1       9.269  13.370   1.508  0.00  0.00     0.147 HD
BRANCH  23  25
ATOM     25  C   LIG d   1       7.376  13.556   1.971  0.00  0.00     0.116 C 
ATOM     26  N   LIG d   1       7.274  13.657   0.638  0.00  0.00    -0.248 NA
ATOM     27  C   LIG d   1       6.048  13.961   0.159  0.00  0.00     0.118 C 
ATOM     28  C   LIG d   1       4.913  14.047   0.951  0.00  0.00     0.019 C 
ATOM     29  C   LIG d   1       5.044  13.832   2.319  0.00  0.00     0.005 C 
ATOM     30  C   LIG d   1       6.306  13.583   2.846  0.00  0.00     0.045 C 
ENDBRANCH  23  25
ENDBRANCH  20  23
ENDBRANCH   1  20
TORSDOF 8
ENDMDL
MODEL 3
REMARK VINA RESULT:      -7.1     28.477     30.653
REMARK  8 active torsions:
REMARK  status: ('A' for Active; 'I' for Inactive)
REMARK    1  A    between atoms: S_1  and  N_7 
REMARK    2  A    between atoms: S_1  and  C_11 
REMARK    3  A    between atoms: O_4  and  C_22 
REMARK    4  A    between atoms: N_7  and  C_17 
REMARK    5  A    between atoms: N_8  and  N_10 
REMARK    6  A    between atoms: N_8  and  C_14 
REMARK    7  A    between atoms: N_10  and  C_18 
REMARK    8  A    between atoms: C_20  and  C_28 
ROOT
ATOM      1  C   LIG d   1       9.982  -2.731  24.483  0.00  0.00     0.075 A 
ATOM      2  C   LIG d   1       9.533  -1.777  25.392  0.00  0.00     0.027 A 
ATOM      3  C   LIG d   1      10.950  -2.408  23.533  0.00  0.00     0.027 A 
ATOM      4  C   LIG d   1      10.992  -0.102  24.358  0.00  0.00     0.079 A 
ATOM      5  C   LIG d   1      10.036  -0.475  25.317  0.00  0.00     0.035 A 
ATOM      6  C   LIG d   1      11.435  -1.099  23.476  0.00  0.00     0.035 A 
ENDROOT
BRANCH   4   7
ATOM      7  N   LIG d   1      11.498   1.144  24.206  0.00  0.00    -0.150 NA
BRANCH   7   8
ATOM      8  N   LIG d   1      11.432   1.697  22.831  0.00  0.00    -0.150 NA
BRANCH   8   9
ATOM      9  C   LIG d   1      10.181   1.820  22.302  0.00  0.00     0.080 A 
ATOM     10  C   LIG d   1       9.841   1.090  21.129  0.00  0.00     0.054 A 
ATOM     11  C   LIG d   1       8.568   1.159  20.505  0.00  0.00     0.076 A 
ATOM     12  C   LIG d   1       7.615   2.008  21.093  0.00  0.00     0.082 A 
ATOM     13  C   LIG d   1       7.908   2.745  22.234  0.00  0.00     0.040 A 
ATOM     14  C   LIG d   1       9.175   2.648  22.823  0.00  0.00     0.036 A 
BRANCH  11  15
ATOM     15  C   LIG d   1       8.228   0.361  19.259  0.00  0.00     0.212 C 
ATOM     16  O   LIG d   1       7.186  -0.393  19.343  0.00  0.00    -0.644 OA
ATOM     17  O   LIG d   1       8.938   0.454  18.206  0.00  0.00    -0.644 OA
ENDBRANCH  11  15
BRANCH  12  18
ATOM     18  O   LIG d   1       6.346   2.148  20.569  0.00  0.00    -0.360 OA
ATOM     19  H   LIG d   1       6.517   2.469  19.643  0.00  0.00     0.217 HD
ENDBRANCH  12  18
ENDBRANCH   8   9
ENDBRANCH   7   8
ENDBRANCH   4   7
BRANCH   1  20
ATOM     20  S   LIG d   1       9.327  -4.370  24.517  0.00  0.00     0.247 S 
ATOM     21  O   LIG d   1       9.306  -4.892  23.161  0.00  0.00    -0.205 OA
ATOM     22  O   LIG d   1       9.961  -5.144  25.568  0.00  0.00    -0.205 OA
BRANCH  20  23
ATOM     23  N   LIG d   1       7.690  -4.132  24.928  0.00  0.00    -0.165 NA
ATOM     24  H   LIG d   1       7.560  -3.131  25.082  0.00  0.00     0.147 HD
BRANCH  23  25
ATOM     25  C   LIG d   1       7.274  -4.767  26.119  0.00  0.00     0.116 C 
ATOM     26  N   LIG d   1       6.711  -5.957  25.865  0.00  0.00    -0.248 NA
ATOM     27  C   LIG d   1       6.162  -6.591  26.922  0.00  0.00     0.118 C 
ATOM     28  C   LIG d   1       6.260  -6.136  28.229  0.00  0.00     0.019 C 
ATOM     29  C   LIG d   1       6.945  -4.947  28.464  0.00  0.00     0.005 C 
ATOM     30  C   LIG d   1       7.464  -4.241  27.384  0.00  0.00     0.045 C 
ENDBRANCH  23  25
ENDBRANCH  20  23
ENDBRANCH   1  20
TORSDOF 8
ENDMDL
MODEL 4
REMARK VINA RESULT:      -7.0     18.982     23.130
REMARK  8 active torsions:
REMARK  status: ('A' for Active; 'I' for Inactive)
REMARK    1  A    between atoms: S_1  and  N_7 
REMARK    2  A    between atoms: S_1  and  C_11 
REMARK    3  A    between atoms: O_4  and  C_22 
REMARK    4  A    between atoms: N_7  and  C_17 
REMARK    5  A    between atoms: N_8  and  N_10 
REMARK    6  A    between atoms: N_8  and  C_14 
REMARK    7  A    between atoms: N_10  and  C_18 
REMARK    8  A    between atoms: C_20  and  C_28 
ROOT
ATOM      1  C   LIG d   1      11.050  18.181   4.618  0.00  0.00     0.075 A 
ATOM      2  C   LIG d   1      12.213  18.937   4.490  0.00  0.00     0.027 A 
ATOM      3  C   LIG d   1      10.011  18.315   3.699  0.00  0.00     0.027 A 
ATOM      4  C   LIG d   1      11.275  20.048   2.518  0.00  0.00     0.079 A 
ATOM      5  C   LIG d   1      12.311  19.864   3.448  0.00  0.00     0.035 A 
ATOM      6  C   LIG d   1      10.131  19.250   2.669  0.00  0.00     0.035 A 
ENDROOT
BRANCH   4   7
ATOM      7  N   LIG d   1      11.288  20.947   1.507  0.00  0.00    -0.150 NA
BRANCH   7   8
ATOM      8  N   LIG d   1      10.284  20.722   0.438  0.00  0.00    -0.150 NA
BRANCH   8   9
ATOM      9  C   LIG d   1       9.824  21.844  -0.187  0.00  0.00     0.080 A 
ATOM     10  C   LIG d   1       8.721  21.747  -1.080  0.00  0.00     0.054 A 
ATOM     11  C   LIG d   1       8.178  22.857  -1.779  0.00  0.00     0.076 A 
ATOM     12  C   LIG d   1       8.789  24.105  -1.566  0.00  0.00     0.082 A 
ATOM     13  C   LIG d   1       9.875  24.242  -0.709  0.00  0.00     0.040 A 
ATOM     14  C   LIG d   1      10.379  23.124  -0.034  0.00  0.00     0.036 A 
BRANCH  11  15
ATOM     15  C   LIG d   1       6.993  22.727  -2.718  0.00  0.00     0.212 C 
ATOM     16  O   LIG d   1       5.886  22.349  -2.176  0.00  0.00    -0.644 OA
ATOM     17  O   LIG d   1       7.108  22.989  -3.960  0.00  0.00    -0.644 OA
ENDBRANCH  11  15
BRANCH  12  18
ATOM     18  O   LIG d   1       8.341  25.249  -2.193  0.00  0.00    -0.360 OA
ATOM     19  H   LIG d   1       8.455  25.949  -1.496  0.00  0.00     0.217 HD
ENDBRANCH  12  18
ENDBRANCH   8   9
ENDBRANCH   7   8
ENDBRANCH   4   7
BRANCH   1  20
ATOM     20  S   LIG d   1      10.874  17.040   5.954  0.00  0.00     0.247 S 
ATOM     21  O   LIG d   1      11.732  17.466   7.047  0.00  0.00    -0.205 OA
ATOM     22  O   LIG d   1       9.470  16.779   6.212  0.00  0.00    -0.205 OA
BRANCH  20  23
ATOM     23  N   LIG d   1      11.592  15.616   5.354  0.00  0.00    -0.165 NA
ATOM     24  H   LIG d   1      12.265  15.895   4.640  0.00  0.00     0.147 HD
BRANCH  23  25
ATOM     25  C   LIG d   1      10.702  14.720   4.720  0.00  0.00     0.116 C 
ATOM     26  N   LIG d   1      10.251  13.795   5.580  0.00  0.00    -0.248 NA
ATOM     27  C   LIG d   1       9.494  12.811   5.048  0.00  0.00     0.118 C 
ATOM     28  C   LIG d   1       9.082  12.787   3.725  0.00  0.00     0.019 C 
ATOM     29  C   LIG d   1       9.486  13.823   2.889  0.00  0.00     0.005 C 
ATOM     30  C   LIG d   1      10.320  14.814   3.394  0.00  0.00     0.045 C 
ENDBRANCH  23  25
ENDBRANCH  20  23
ENDBRANCH   1  20
TORSDOF 8
ENDMDL
MODEL 5
REMARK VINA RESULT:      -6.9     16.793     17.525
REMARK  8 active torsions:
REMARK  status: ('A' for Active; 'I' for Inactive)
REMARK    1  A    between atoms: S_1  and  N_7 
REMARK    2  A    between atoms: S_1  and  C_11 
REMARK    3  A    between atoms: O_4  and  C_22 
REMARK    4  A    between atoms: N_7  and  C_17 
REMARK    5  A    between atoms: N_8  and  N_10 
REMARK    6  A    between atoms: N_8  and  C_14 
REMARK    7  A    between atoms: N_10  and  C_18 
REMARK    8  A    between atoms: C_20  and  C_28 
ROOT
ATOM      1  C   LIG d   1       7.594  11.182   3.780  0.00  0.00     0.075 A 
ATOM      2  C   LIG d   1       7.219  11.370   2.451  0.00  0.00     0.027 A 
ATOM      3  C   LIG d   1       6.974  10.209   4.562  0.00  0.00     0.027 A 
ATOM      4  C   LIG d   1       5.515   9.625   2.683  0.00  0.00     0.079 A 
ATOM      5  C   LIG d   1       6.182  10.596   1.920  0.00  0.00     0.035 A 
ATOM      6  C   LIG d   1       5.939   9.451   4.009  0.00  0.00     0.035 A 
ENDROOT
BRANCH   4   7
ATOM      7  N   LIG d   1       4.484   8.864   2.246  0.00  0.00    -0.150 NA
BRANCH   7   8
ATOM      8  N   LIG d   1       4.722   7.400   2.253  0.00  0.00    -0.150 NA
BRANCH   8   9
ATOM      9  C   LIG d   1       3.747   6.646   2.836  0.00  0.00     0.080 A 
ATOM     10  C   LIG d   1       3.002   5.728   2.044  0.00  0.00     0.054 A 
ATOM     11  C   LIG d   1       1.966   4.906   2.561  0.00  0.00     0.076 A 
ATOM     12  C   LIG d   1       1.675   5.034   3.930  0.00  0.00     0.082 A 
ATOM     13  C   LIG d   1       2.371   5.926   4.738  0.00  0.00     0.040 A 
ATOM     14  C   LIG d   1       3.390   6.716   4.191  0.00  0.00     0.036 A 
BRANCH  11  15
ATOM     15  C   LIG d   1       1.195   3.927   1.696  0.00  0.00     0.212 C 
ATOM     16  O   LIG d   1      -0.088   4.059   1.706  0.00  0.00    -0.644 OA
ATOM     17  O   LIG d   1       1.800   3.044   1.004  0.00  0.00    -0.644 OA
ENDBRANCH  11  15
BRANCH  12  18
ATOM     18  O   LIG d   1       0.689   4.284   4.536  0.00  0.00    -0.360 OA
ATOM     19  H   LIG d   1       0.251   3.823   3.771  0.00  0.00     0.217 HD
ENDBRANCH  12  18
ENDBRANCH   8   9
ENDBRANCH   7   8
ENDBRANCH   4   7
BRANCH   1  20
ATOM     20  S   LIG d   1       8.862  12.180   4.495  0.00  0.00     0.247 S 
ATOM     21  O   LIG d   1       8.241  13.291   5.196  0.00  0.00    -0.205 OA
ATOM     22  O   LIG d   1       9.825  11.347   5.193  0.00  0.00    -0.205 OA
BRANCH  20  23
ATOM     23  N   LIG d   1       9.625  12.879   3.142  0.00  0.00    -0.165 NA
ATOM     24  H   LIG d   1      10.524  12.409   3.026  0.00  0.00     0.147 HD
BRANCH  23  25
ATOM     25  C   LIG d   1       9.919  14.255   3.265  0.00  0.00     0.116 C 
ATOM     26  N   LIG d   1      11.007  14.453   4.024  0.00  0.00    -0.248 NA
ATOM     27  C   LIG d   1      11.302  15.739   4.313  0.00  0.00     0.118 C 
ATOM     28  C   LIG d   1      10.623  16.823   3.777  0.00  0.00     0.019 C 
ATOM     29  C   LIG d   1       9.564  16.575   2.910  0.00  0.00     0.005 C 
ATOM     30  C   LIG d   1       9.198  15.260   2.647  0.00  0.00     0.045 C 
ENDBRANCH  23  25
ENDBRANCH  20  23
ENDBRANCH   1  20
TORSDOF 8
ENDMDL
MODEL 6
REMARK VINA RESULT:      -6.9      1.053      2.042
REMARK  8 active torsions:
REMARK  status: ('A' for Active; 'I' for Inactive)
REMARK    1  A    between atoms: S_1  and  N_7 
REMARK    2  A    between atoms: S_1  and  C_11 
REMARK    3  A    between atoms: O_4  and  C_22 
REMARK    4  A    between atoms: N_7  and  C_17 
REMARK    5  A    between atoms: N_8  and  N_10 
REMARK    6  A    between atoms: N_8  and  C_14 
REMARK    7  A    between atoms: N_10  and  C_18 
REMARK    8  A    between atoms: C_20  and  C_28 
ROOT
ATOM      1  C   LIG d   1      20.114   1.606  -3.305  0.00  0.00     0.075 A 
ATOM      2  C   LIG d   1      20.531   0.855  -4.402  0.00  0.00     0.027 A 
ATOM      3  C   LIG d   1      19.889   0.996  -2.072  0.00  0.00     0.027 A 
ATOM      4  C   LIG d   1      20.443  -1.182  -3.044  0.00  0.00     0.079 A 
ATOM      5  C   LIG d   1      20.685  -0.528  -4.263  0.00  0.00     0.035 A 
ATOM      6  C   LIG d   1      20.047  -0.387  -1.959  0.00  0.00     0.035 A 
ENDROOT
BRANCH   4   7
ATOM      7  N   LIG d   1      20.539  -2.518  -2.846  0.00  0.00    -0.150 NA
BRANCH   7   8
ATOM      8  N   LIG d   1      19.399  -3.142  -2.131  0.00  0.00    -0.150 NA
BRANCH   8   9
ATOM      9  C   LIG d   1      18.297  -3.406  -2.891  0.00  0.00     0.080 A 
ATOM     10  C   LIG d   1      18.272  -4.567  -3.711  0.00  0.00     0.054 A 
ATOM     11  C   LIG d   1      17.174  -4.920  -4.538  0.00  0.00     0.076 A 
ATOM     12  C   LIG d   1      16.069  -4.051  -4.535  0.00  0.00     0.082 A 
ATOM     13  C   LIG d   1      16.056  -2.900  -3.756  0.00  0.00     0.040 A 
ATOM     14  C   LIG d   1      17.157  -2.589  -2.949  0.00  0.00     0.036 A 
BRANCH  11  15
ATOM     15  C   LIG d   1      17.170  -6.172  -5.396  0.00  0.00     0.212 C 
ATOM     16  O   LIG d   1      17.519  -7.261  -4.800  0.00  0.00    -0.644 OA
ATOM     17  O   LIG d   1      16.830  -6.126  -6.623  0.00  0.00    -0.644 OA
ENDBRANCH  11  15
BRANCH  12  18
ATOM     18  O   LIG d   1      14.949  -4.298  -5.301  0.00  0.00    -0.360 OA
ATOM     19  H   LIG d   1      14.598  -3.387  -5.491  0.00  0.00     0.217 HD
ENDBRANCH  12  18
ENDBRANCH   8   9
ENDBRANCH   7   8
ENDBRANCH   4   7
BRANCH   1  20
ATOM     20  S   LIG d   1      19.859   3.345  -3.463  0.00  0.00     0.247 S 
ATOM     21  O   LIG d   1      19.542   3.890  -2.154  0.00  0.00    -0.205 OA
ATOM     22  O   LIG d   1      20.927   3.942  -4.243  0.00  0.00    -0.205 OA
BRANCH  20  23
ATOM     23  N   LIG d   1      18.409   3.452  -4.352  0.00  0.00    -0.165 NA
ATOM     24  H   LIG d   1      18.238   2.534  -4.763  0.00  0.00     0.147 HD
BRANCH  23  25
ATOM     25  C   LIG d   1      18.436   4.362  -5.432  0.00  0.00     0.116 C 
ATOM     26  N   LIG d   1      18.412   5.631  -4.999  0.00  0.00    -0.248 NA
ATOM     27  C   LIG d   1      18.304   6.581  -5.952  0.00  0.00     0.118 C 
ATOM     28  C   LIG d   1      18.339   6.314  -7.313  0.00  0.00     0.019 C 
ATOM     29  C   LIG d   1      18.471   4.991  -7.722  0.00  0.00     0.005 C 
ATOM     30  C   LIG d   1      18.518   3.987  -6.761  0.00  0.00     0.045 C 
ENDBRANCH  23  25
ENDBRANCH  20  23
ENDBRANCH   1  20
TORSDOF 8
ENDMDL
MODEL 7
REMARK VINA RESULT:      -6.9     28.590     30.962
REMARK  8 active torsions:
REMARK  status: ('A' for Active; 'I' for Inactive)
REMARK    1  A    between atoms: S_1  and  N_7 
REMARK    2  A    between atoms: S_1  and  C_11 
REMARK    3  A    between atoms: O_4  and  C_22 
REMARK    4  A    between atoms: N_7  and  C_17 
REMARK    5  A    between atoms: N_8  and  N_10 
REMARK    6  A    between atoms: N_8  and  C_14 
REMARK    7  A    between atoms: N_10  and  C_18 
REMARK    8  A    between atoms: C_20  and  C_28 
ROOT
ATOM      1  C   LIG d   1       7.258  -4.346  23.136  0.00  0.00     0.075 A 
ATOM      2  C   LIG d   1       8.577  -4.760  23.307  0.00  0.00     0.027 A 
ATOM      3  C   LIG d   1       6.852  -3.078  23.551  0.00  0.00     0.027 A 
ATOM      4  C   LIG d   1       9.108  -2.630  24.393  0.00  0.00     0.079 A 
ATOM      5  C   LIG d   1       9.483  -3.903  23.937  0.00  0.00     0.035 A 
ATOM      6  C   LIG d   1       7.776  -2.242  24.181  0.00  0.00     0.035 A 
ENDROOT
BRANCH   4   7
ATOM      7  N   LIG d   1       9.922  -1.763  25.039  0.00  0.00    -0.150 NA
BRANCH   7   8
ATOM      8  N   LIG d   1      10.969  -1.126  24.204  0.00  0.00    -0.150 NA
BRANCH   8   9
ATOM      9  C   LIG d   1      10.625   0.063  23.630  0.00  0.00     0.080 A 
ATOM     10  C   LIG d   1       9.869   0.069  22.426  0.00  0.00     0.054 A 
ATOM     11  C   LIG d   1       9.471   1.255  21.754  0.00  0.00     0.076 A 
ATOM     12  C   LIG d   1       9.867   2.475  22.328  0.00  0.00     0.082 A 
ATOM     13  C   LIG d   1      10.615   2.515  23.500  0.00  0.00     0.040 A 
ATOM     14  C   LIG d   1      10.985   1.323  24.134  0.00  0.00     0.036 A 
BRANCH  11  15
ATOM     15  C   LIG d   1       8.655   1.232  20.475  0.00  0.00     0.212 C 
ATOM     16  O   LIG d   1       9.224   0.684  19.456  0.00  0.00    -0.644 OA
ATOM     17  O   LIG d   1       7.479   1.721  20.437  0.00  0.00    -0.644 OA
ENDBRANCH  11  15
BRANCH  12  18
ATOM     18  O   LIG d   1       9.534   3.687  21.760  0.00  0.00    -0.360 OA
ATOM     19  H   LIG d   1       9.857   3.595  20.823  0.00  0.00     0.217 HD
ENDBRANCH  12  18
ENDBRANCH   8   9
ENDBRANCH   7   8
ENDBRANCH   4   7
BRANCH   1  20
ATOM     20  S   LIG d   1       6.075  -5.425  22.392  0.00  0.00     0.247 S 
ATOM     21  O   LIG d   1       4.742  -4.912  22.660  0.00  0.00    -0.205 OA
ATOM     22  O   LIG d   1       6.459  -5.728  21.026  0.00  0.00    -0.205 OA
BRANCH  20  23
ATOM     23  N   LIG d   1       6.200  -6.847  23.322  0.00  0.00    -0.165 NA
ATOM     24  H   LIG d   1       5.834  -7.613  22.754  0.00  0.00     0.147 HD
BRANCH  23  25
ATOM     25  C   LIG d   1       5.441  -6.851  24.514  0.00  0.00     0.116 C 
ATOM     26  N   LIG d   1       4.319  -7.573  24.373  0.00  0.00    -0.248 NA
ATOM     27  C   LIG d   1       3.457  -7.537  25.411  0.00  0.00     0.118 C 
ATOM     28  C   LIG d   1       3.730  -6.908  26.617  0.00  0.00     0.019 C 
ATOM     29  C   LIG d   1       4.951  -6.258  26.760  0.00  0.00     0.005 C 
ATOM     30  C   LIG d   1       5.830  -6.224  25.683  0.00  0.00     0.045 C 
ENDBRANCH  23  25
ENDBRANCH  20  23
ENDBRANCH   1  20
TORSDOF 8
ENDMDL
MODEL 8
REMARK VINA RESULT:      -6.9     20.799     23.888
REMARK  8 active torsions:
REMARK  status: ('A' for Active; 'I' for Inactive)
REMARK    1  A    between atoms: S_1  and  N_7 
REMARK    2  A    between atoms: S_1  and  C_11 
REMARK    3  A    between atoms: O_4  and  C_22 
REMARK    4  A    between atoms: N_7  and  C_17 
REMARK    5  A    between atoms: N_8  and  N_10 
REMARK    6  A    between atoms: N_8  and  C_14 
REMARK    7  A    between atoms: N_10  and  C_18 
REMARK    8  A    between atoms: C_20  and  C_28 
ROOT
ATOM      1  C   LIG d   1      24.628  -2.019  18.910  0.00  0.00     0.075 A 
ATOM      2  C   LIG d   1      25.309  -2.992  18.180  0.00  0.00     0.027 A 
ATOM      3  C   LIG d   1      23.845  -1.064  18.263  0.00  0.00     0.027 A 
ATOM      4  C   LIG d   1      24.473  -2.014  16.095  0.00  0.00     0.079 A 
ATOM      5  C   LIG d   1      25.229  -2.975  16.784  0.00  0.00     0.035 A 
ATOM      6  C   LIG d   1      23.785  -1.067  16.868  0.00  0.00     0.035 A 
ENDROOT
BRANCH   4   7
ATOM      7  N   LIG d   1      24.378  -1.918  14.748  0.00  0.00    -0.150 NA
BRANCH   7   8
ATOM      8  N   LIG d   1      24.370  -0.538  14.204  0.00  0.00    -0.150 NA
BRANCH   8   9
ATOM      9  C   LIG d   1      25.372  -0.242  13.327  0.00  0.00     0.080 A 
ATOM     10  C   LIG d   1      25.599  -1.091  12.208  0.00  0.00     0.054 A 
ATOM     11  C   LIG d   1      26.619  -0.867  11.248  0.00  0.00     0.076 A 
ATOM     12  C   LIG d   1      27.442   0.256  11.442  0.00  0.00     0.082 A 
ATOM     13  C   LIG d   1      27.261   1.106  12.527  0.00  0.00     0.040 A 
ATOM     14  C   LIG d   1      26.240   0.854  13.451  0.00  0.00     0.036 A 
BRANCH  11  15
ATOM     15  C   LIG d   1      26.832  -1.783  10.057  0.00  0.00     0.212 C 
ATOM     16  O   LIG d   1      26.524  -1.289   8.906  0.00  0.00    -0.644 OA
ATOM     17  O   LIG d   1      27.296  -2.961  10.208  0.00  0.00    -0.644 OA
ENDBRANCH  11  15
BRANCH  12  18
ATOM     18  O   LIG d   1      28.463   0.568  10.569  0.00  0.00    -0.360 OA
ATOM     19  H   LIG d   1      29.203   0.845  11.174  0.00  0.00     0.217 HD
ENDBRANCH  12  18
ENDBRANCH   8   9
ENDBRANCH   7   8
ENDBRANCH   4   7
BRANCH   1  20
ATOM     20  S   LIG d   1      24.751  -1.980  20.670  0.00  0.00     0.247 S 
ATOM     21  O   LIG d   1      25.005  -3.328  21.150  0.00  0.00    -0.205 OA
ATOM     22  O   LIG d   1      25.624  -0.900  21.090  0.00  0.00    -0.205 OA
BRANCH  20  23
ATOM     23  N   LIG d   1      23.161  -1.623  21.169  0.00  0.00    -0.165 NA
ATOM     24  H   LIG d   1      22.861  -0.796  20.650  0.00  0.00     0.147 HD
BRANCH  23  25
ATOM     25  C   LIG d   1      23.023  -1.295  22.536  0.00  0.00     0.116 C 
ATOM     26  N   LIG d   1      22.765  -2.385  23.273  0.00  0.00    -0.248 NA
ATOM     27  C   LIG d   1      22.486  -2.168  24.576  0.00  0.00     0.118 C 
ATOM     28  C   LIG d   1      22.573  -0.924  25.184  0.00  0.00     0.019 C 
ATOM     29  C   LIG d   1      22.946   0.167  24.405  0.00  0.00     0.005 C 
ATOM     30  C   LIG d   1      23.175  -0.019  23.046  0.00  0.00     0.045 C 
ENDBRANCH  23  25
ENDBRANCH  20  23
ENDBRANCH   1  20
TORSDOF 8
ENDMDL
MODEL 9
REMARK VINA RESULT:      -6.9     17.740     21.914
REMARK  8 active torsions:
REMARK  status: ('A' for Active; 'I' for Inactive)
REMARK    1  A    between atoms: S_1  and  N_7 
REMARK    2  A    between atoms: S_1  and  C_11 
REMARK    3  A    between atoms: O_4  and  C_22 
REMARK    4  A    between atoms: N_7  and  C_17 
REMARK    5  A    between atoms: N_8  and  N_10 
REMARK    6  A    between atoms: N_8  and  C_14 
REMARK    7  A    between atoms: N_10  and  C_18 
REMARK    8  A    between atoms: C_20  and  C_28 
ROOT
ATOM      1  C   LIG d   1       8.904  14.801   3.319  0.00  0.00     0.075 A 
ATOM      2  C   LIG d   1       8.030  15.882   3.411  0.00  0.00     0.027 A 
ATOM      3  C   LIG d   1       9.833  14.726   2.282  0.00  0.00     0.027 A 
ATOM      4  C   LIG d   1       8.972  16.821   1.353  0.00  0.00     0.079 A 
ATOM      5  C   LIG d   1       8.069  16.875   2.427  0.00  0.00     0.035 A 
ATOM      6  C   LIG d   1       9.850  15.728   1.310  0.00  0.00     0.035 A 
ENDROOT
BRANCH   4   7
ATOM      7  N   LIG d   1       9.043  17.727   0.350  0.00  0.00    -0.150 NA
BRANCH   7   8
ATOM      8  N   LIG d   1      10.212  18.639   0.394  0.00  0.00    -0.150 NA
BRANCH   8   9
ATOM      9  C   LIG d   1       9.942  19.957   0.170  0.00  0.00     0.080 A 
ATOM     10  C   LIG d   1       8.842  20.318  -0.656  0.00  0.00     0.054 A 
ATOM     11  C   LIG d   1       8.489  21.662  -0.950  0.00  0.00     0.076 A 
ATOM     12  C   LIG d   1       9.293  22.669  -0.389  0.00  0.00     0.082 A 
ATOM     13  C   LIG d   1      10.384  22.360   0.416  0.00  0.00     0.040 A 
ATOM     14  C   LIG d   1      10.697  21.022   0.686  0.00  0.00     0.036 A 
BRANCH  11  15
ATOM     15  C   LIG d   1       7.303  22.019  -1.826  0.00  0.00     0.212 C 
ATOM     16  O   LIG d   1       7.530  22.887  -2.752  0.00  0.00    -0.644 OA
ATOM     17  O   LIG d   1       6.165  21.476  -1.644  0.00  0.00    -0.644 OA
ENDBRANCH  11  15
BRANCH  12  18
ATOM     18  O   LIG d   1       9.040  24.007  -0.608  0.00  0.00    -0.360 OA
ATOM     19  H   LIG d   1       8.656  24.018  -1.526  0.00  0.00     0.217 HD
ENDBRANCH  12  18
ENDBRANCH   8   9
ENDBRANCH   7   8
ENDBRANCH   4   7
BRANCH   1  20
ATOM     20  S   LIG d   1       8.844  13.504   4.515  0.00  0.00     0.247 S 
ATOM     21  O   LIG d   1       9.402  12.299   3.925  0.00  0.00    -0.205 OA
ATOM     22  O   LIG d   1       9.352  13.972   5.791  0.00  0.00    -0.205 OA
BRANCH  20  23
ATOM     23  N   LIG d   1       7.177  13.191   4.674  0.00  0.00    -0.165 NA
ATOM     24  H   LIG d   1       7.025  12.834   5.618  0.00  0.00     0.147 HD
BRANCH  23  25
ATOM     25  C   LIG d   1       6.667  12.205   3.799  0.00  0.00     0.116 C 
ATOM     26  N   LIG d   1       6.578  11.014   4.409  0.00  0.00    -0.248 NA
ATOM     27  C   LIG d   1       6.225   9.972   3.626  0.00  0.00     0.118 C 
ATOM     28  C   LIG d   1       5.847  10.101   2.298  0.00  0.00     0.019 C 
ATOM     29  C   LIG d   1       5.852  11.372   1.731  0.00  0.00     0.005 C 
ATOM     30  C   LIG d   1       6.275  12.453   2.496  0.00  0.00     0.045 C 
ENDBRANCH  23  25
ENDBRANCH  20  23
ENDBRANCH   1  20
TORSDOF 8
ENDMDL
