MODEL 1
REMARK VINA RESULT:      -7.9      0.000      0.000
REMARK  13 active torsions:
REMARK  status: ('A' for Active; 'I' for Inactive)
REMARK    1  A    between atoms: S_2  and  C_10 
REMARK    2  A    between atoms: S_2  and  C_13 
REMARK    3  A    between atoms: O_5  and  C_23 
REMARK    4  A    between atoms: C_7  and  C_10 
REMARK    5  A    between atoms: C_7  and  C_11 
REMARK    6  A    between atoms: C_11  and  C_12 
REMARK    7  A    between atoms: C_13  and  C_15 
REMARK    8  A    between atoms: C_13  and  C_14 
REMARK    9  A    between atoms: C_14  and  C_16 
REMARK   10  A    between atoms: C_16  and  C_19 
REMARK   11  A    between atoms: C_20  and  C_23 
REMARK   12  A    between atoms: C_21  and  C_28 
REMARK   13  A    between atoms: C_32  and  C_33 
ROOT
ATOM      1  C   LIG d   1      16.925  -2.656  -7.820  0.00  0.00     0.080 C 
ENDROOT
BRANCH   1   2
ATOM      2  S   LIG d   1      16.565  -2.828  -9.616  0.00  0.00    -0.159 SA
BRANCH   2   3
ATOM      3  C   LIG d   1      14.829  -2.272  -9.609  0.00  0.00     0.084 C 
BRANCH   3   4
ATOM      4  C   LIG d   1      14.150  -2.675 -10.903  0.00  0.00    -0.022 A 
ATOM      5  C   LIG d   1      14.558  -1.939 -12.168  0.00  0.00     0.011 A 
ATOM      6  C   LIG d   1      13.209  -1.681 -11.569  0.00  0.00     0.011 A 
BRANCH   4   7
ATOM      7  C   LIG d   1      13.847  -4.165 -11.051  0.00  0.00     0.123 C 
BRANCH   7   8
ATOM      8  C   LIG d   1      13.270  -4.801  -9.776  0.00  0.00     0.173 C 
ATOM      9  O   LIG d   1      14.102  -5.428  -9.057  0.00  0.00    -0.648 OA
ATOM     10  O   LIG d   1      12.034  -4.618  -9.593  0.00  0.00    -0.648 OA
ENDBRANCH   7   8
ENDBRANCH   4   7
ENDBRANCH   3   4
ENDBRANCH   2   3
ENDBRANCH   1   2
BRANCH   1  11
ATOM     11  C   LIG d   1      18.121  -1.746  -7.567  0.00  0.00    -0.043 A 
ATOM     12  C   LIG d   1      18.016  -0.595  -6.765  0.00  0.00     0.019 A 
ATOM     13  C   LIG d   1      19.111   0.256  -6.555  0.00  0.00    -0.036 A 
ATOM     14  C   LIG d   1      20.340  -0.070  -7.135  0.00  0.00     0.011 A 
ATOM     15  C   LIG d   1      20.468  -1.223  -7.913  0.00  0.00     0.001 A 
ATOM     16  C   LIG d   1      19.366  -2.051  -8.133  0.00  0.00     0.008 A 
BRANCH  13  17
ATOM     17  C   LIG d   1      18.881   1.513  -5.829  0.00  0.00     0.014 C 
ATOM     18  C   LIG d   1      19.152   2.740  -6.303  0.00  0.00     0.032 C 
BRANCH  18  19
ATOM     19  C   LIG d   1      18.874   3.992  -5.587  0.00  0.00     0.057 A 
ATOM     20  N   LIG d   1      19.976   4.615  -5.103  0.00  0.00    -0.248 NA
ATOM     21  C   LIG d   1      19.825   5.779  -4.448  0.00  0.00     0.069 A 
ATOM     22  C   LIG d   1      18.561   6.367  -4.229  0.00  0.00    -0.007 A 
ATOM     23  C   LIG d   1      20.948   6.436  -3.969  0.00  0.00     0.056 A 
ATOM     24  C   LIG d   1      17.436   5.692  -4.710  0.00  0.00     0.016 A 
ATOM     25  C   LIG d   1      18.451   7.589  -3.546  0.00  0.00     0.015 A 
ATOM     26  C   LIG d   1      17.593   4.490  -5.391  0.00  0.00     0.032 A 
ATOM     27  C   LIG d   1      19.594   8.233  -3.078  0.00  0.00     0.025 A 
ATOM     28  C   LIG d   1      20.839   7.651  -3.291  0.00  0.00     0.036 A 
ATOM     29 CL   LIG d   1      22.256   8.438  -2.713  0.00  0.00    -0.084 Cl
ENDBRANCH  18  19
ENDBRANCH  13  17
ENDBRANCH   1  11
BRANCH   1  30
ATOM     30  C   LIG d   1      15.652  -2.153  -7.108  0.00  0.00     0.025 C 
BRANCH  30  31
ATOM     31  C   LIG d   1      14.969  -3.269  -6.295  0.00  0.00     0.040 C 
BRANCH  31  32
ATOM     32  C   LIG d   1      15.734  -3.635  -5.037  0.00  0.00    -0.049 A 
ATOM     33  C   LIG d   1      16.188  -4.936  -4.695  0.00  0.00    -0.019 A 
ATOM     34  C   LIG d   1      16.969  -5.054  -3.517  0.00  0.00     0.011 A 
ATOM     35  C   LIG d   1      17.248  -3.969  -2.684  0.00  0.00     0.001 A 
ATOM     36  C   LIG d   1      16.759  -2.714  -3.004  0.00  0.00     0.001 A 
ATOM     37  C   LIG d   1      16.016  -2.552  -4.168  0.00  0.00     0.007 A 
BRANCH  33  38
ATOM     38  C   LIG d   1      15.898  -6.214  -5.505  0.00  0.00     0.078 C 
ATOM     39  C   LIG d   1      17.059  -7.222  -5.477  0.00  0.00     0.051 C 
ATOM     40  C   LIG d   1      14.566  -6.863  -5.121  0.00  0.00     0.051 C 
BRANCH  38  41
ATOM     41  O   LIG d   1      15.742  -5.889  -6.907  0.00  0.00    -0.386 OA
ATOM     42  H   LIG d   1      16.255  -5.077  -7.063  0.00  0.00     0.211 HD
ENDBRANCH  38  41
ENDBRANCH  33  38
ENDBRANCH  31  32
ENDBRANCH  30  31
ENDBRANCH   1  30
TORSDOF 13
ENDMDL
MODEL 2
REMARK VINA RESULT:      -7.7     20.311     24.217
REMARK  13 active torsions:
REMARK  status: ('A' for Active; 'I' for Inactive)
REMARK    1  A    between atoms: S_2  and  C_10 
REMARK    2  A    between atoms: S_2  and  C_13 
REMARK    3  A    between atoms: O_5  and  C_23 
REMARK    4  A    between atoms: C_7  and  C_10 
REMARK    5  A    between atoms: C_7  and  C_11 
REMARK    6  A    between atoms: C_11  and  C_12 
REMARK    7  A    between atoms: C_13  and  C_15 
REMARK    8  A    between atoms: C_13  and  C_14 
REMARK    9  A    between atoms: C_14  and  C_16 
REMARK   10  A    between atoms: C_16  and  C_19 
REMARK   11  A    between atoms: C_20  and  C_23 
REMARK   12  A    between atoms: C_21  and  C_28 
REMARK   13  A    between atoms: C_32  and  C_33 
ROOT
ATOM      1  C   LIG d   1       9.783  20.148  -0.159  0.00  0.00     0.080 C 
ENDROOT
BRANCH   1   2
ATOM      2  S   LIG d   1       8.149  20.920  -0.504  0.00  0.00    -0.159 SA
BRANCH   2   3
ATOM      3  C   LIG d   1       8.662  22.091  -1.804  0.00  0.00     0.084 C 
BRANCH   3   4
ATOM      4  C   LIG d   1       7.525  23.042  -2.122  0.00  0.00    -0.022 A 
ATOM      5  C   LIG d   1       6.122  22.462  -2.190  0.00  0.00     0.011 A 
ATOM      6  C   LIG d   1       6.803  22.890  -3.454  0.00  0.00     0.011 A 
BRANCH   4   7
ATOM      7  C   LIG d   1       7.653  24.443  -1.528  0.00  0.00     0.123 C 
BRANCH   7   8
ATOM      8  C   LIG d   1       6.754  24.673  -0.303  0.00  0.00     0.173 C 
ATOM      9  O   LIG d   1       5.717  25.368  -0.513  0.00  0.00    -0.648 OA
ATOM     10  O   LIG d   1       7.153  24.136   0.769  0.00  0.00    -0.648 OA
ENDBRANCH   7   8
ENDBRANCH   4   7
ENDBRANCH   3   4
ENDBRANCH   2   3
ENDBRANCH   1   2
BRANCH   1  11
ATOM     11  C   LIG d   1      10.561  20.918   0.901  0.00  0.00    -0.043 A 
ATOM     12  C   LIG d   1      10.905  20.335   2.134  0.00  0.00     0.019 A 
ATOM     13  C   LIG d   1      11.598  21.053   3.118  0.00  0.00    -0.036 A 
ATOM     14  C   LIG d   1      11.977  22.372   2.850  0.00  0.00     0.011 A 
ATOM     15  C   LIG d   1      11.666  22.958   1.622  0.00  0.00     0.001 A 
ATOM     16  C   LIG d   1      10.957  22.240   0.658  0.00  0.00     0.008 A 
BRANCH  13  17
ATOM     17  C   LIG d   1      11.789  20.421   4.432  0.00  0.00     0.014 C 
ATOM     18  C   LIG d   1      11.506  19.141   4.722  0.00  0.00     0.032 C 
BRANCH  18  19
ATOM     19  C   LIG d   1      11.746  18.507   6.026  0.00  0.00     0.057 A 
ATOM     20  N   LIG d   1      12.816  18.997   6.697  0.00  0.00    -0.248 NA
ATOM     21  C   LIG d   1      13.106  18.494   7.908  0.00  0.00     0.069 A 
ATOM     22  C   LIG d   1      12.348  17.461   8.499  0.00  0.00    -0.007 A 
ATOM     23  C   LIG d   1      14.185  19.005   8.613  0.00  0.00     0.056 A 
ATOM     24  C   LIG d   1      11.267  16.949   7.777  0.00  0.00     0.016 A 
ATOM     25  C   LIG d   1      12.682  16.970   9.772  0.00  0.00     0.015 A 
ATOM     26  C   LIG d   1      10.965  17.473   6.525  0.00  0.00     0.032 A 
ATOM     27  C   LIG d   1      13.769  17.501  10.463  0.00  0.00     0.025 A 
ATOM     28  C   LIG d   1      14.516  18.517   9.877  0.00  0.00     0.036 A 
ATOM     29 CL   LIG d   1      15.863  19.177  10.722  0.00  0.00    -0.084 Cl
ENDBRANCH  18  19
ENDBRANCH  13  17
ENDBRANCH   1  11
BRANCH   1  30
ATOM     30  C   LIG d   1       9.558  18.675   0.242  0.00  0.00     0.025 C 
BRANCH  30  31
ATOM     31  C   LIG d   1       8.098  18.409   0.653  0.00  0.00     0.040 C 
BRANCH  31  32
ATOM     32  C   LIG d   1       7.948  18.090   2.129  0.00  0.00    -0.049 A 
ATOM     33  C   LIG d   1       8.046  16.799   2.709  0.00  0.00    -0.019 A 
ATOM     34  C   LIG d   1       7.969  16.723   4.124  0.00  0.00     0.011 A 
ATOM     35  C   LIG d   1       7.753  17.844   4.929  0.00  0.00     0.001 A 
ATOM     36  C   LIG d   1       7.612  19.091   4.346  0.00  0.00     0.001 A 
ATOM     37  C   LIG d   1       7.712  19.210   2.965  0.00  0.00     0.007 A 
BRANCH  33  38
ATOM     38  C   LIG d   1       8.230  15.488   1.922  0.00  0.00     0.078 C 
ATOM     39  C   LIG d   1       9.677  15.266   1.450  0.00  0.00     0.051 C 
ATOM     40  C   LIG d   1       7.679  14.270   2.669  0.00  0.00     0.051 C 
BRANCH  38  41
ATOM     41  O   LIG d   1       7.459  15.530   0.697  0.00  0.00    -0.386 OA
ATOM     42  H   LIG d   1       7.685  16.367   0.256  0.00  0.00     0.211 HD
ENDBRANCH  38  41
ENDBRANCH  33  38
ENDBRANCH  31  32
ENDBRANCH  30  31
ENDBRANCH   1  30
TORSDOF 13
ENDMDL
MODEL 3
REMARK VINA RESULT:      -7.7      1.559      2.339
REMARK  13 active torsions:
REMARK  status: ('A' for Active; 'I' for Inactive)
REMARK    1  A    between atoms: S_2  and  C_10 
REMARK    2  A    between atoms: S_2  and  C_13 
REMARK    3  A    between atoms: O_5  and  C_23 
REMARK    4  A    between atoms: C_7  and  C_10 
REMARK    5  A    between atoms: C_7  and  C_11 
REMARK    6  A    between atoms: C_11  and  C_12 
REMARK    7  A    between atoms: C_13  and  C_15 
REMARK    8  A    between atoms: C_13  and  C_14 
REMARK    9  A    between atoms: C_14  and  C_16 
REMARK   10  A    between atoms: C_16  and  C_19 
REMARK   11  A    between atoms: C_20  and  C_23 
REMARK   12  A    between atoms: C_21  and  C_28 
REMARK   13  A    between atoms: C_32  and  C_33 
ROOT
ATOM      1  C   LIG d   1      17.237  -2.216  -6.825  0.00  0.00     0.080 C 
ENDROOT
BRANCH   1   2
ATOM      2  S   LIG d   1      16.083  -2.186  -8.257  0.00  0.00    -0.159 SA
BRANCH   2   3
ATOM      3  C   LIG d   1      14.598  -2.854  -7.435  0.00  0.00     0.084 C 
BRANCH   3   4
ATOM      4  C   LIG d   1      14.396  -4.304  -7.829  0.00  0.00    -0.022 A 
ATOM      5  C   LIG d   1      13.286  -5.073  -7.134  0.00  0.00     0.011 A 
ATOM      6  C   LIG d   1      14.713  -5.385  -6.806  0.00  0.00     0.011 A 
BRANCH   4   7
ATOM      7  C   LIG d   1      14.622  -4.621  -9.307  0.00  0.00     0.123 C 
BRANCH   7   8
ATOM      8  C   LIG d   1      13.329  -4.616 -10.138  0.00  0.00     0.173 C 
ATOM      9  O   LIG d   1      12.825  -3.474 -10.351  0.00  0.00    -0.648 OA
ATOM     10  O   LIG d   1      12.925  -5.751 -10.515  0.00  0.00    -0.648 OA
ENDBRANCH   7   8
ENDBRANCH   4   7
ENDBRANCH   3   4
ENDBRANCH   2   3
ENDBRANCH   1   2
BRANCH   1  11
ATOM     11  C   LIG d   1      18.397  -1.246  -7.012  0.00  0.00    -0.043 A 
ATOM     12  C   LIG d   1      18.503  -0.066  -6.255  0.00  0.00     0.019 A 
ATOM     13  C   LIG d   1      19.557   0.839  -6.447  0.00  0.00    -0.036 A 
ATOM     14  C   LIG d   1      20.539   0.538  -7.395  0.00  0.00     0.011 A 
ATOM     15  C   LIG d   1      20.464  -0.642  -8.137  0.00  0.00     0.001 A 
ATOM     16  C   LIG d   1      19.398  -1.524  -7.953  0.00  0.00     0.008 A 
BRANCH  13  17
ATOM     17  C   LIG d   1      19.514   2.117  -5.723  0.00  0.00     0.014 C 
ATOM     18  C   LIG d   1      18.892   3.228  -6.151  0.00  0.00     0.032 C 
BRANCH  18  19
ATOM     19  C   LIG d   1      18.815   4.486  -5.396  0.00  0.00     0.057 A 
ATOM     20  N   LIG d   1      20.013   4.955  -4.968  0.00  0.00    -0.248 NA
ATOM     21  C   LIG d   1      20.048   6.110  -4.284  0.00  0.00     0.069 A 
ATOM     22  C   LIG d   1      18.882   6.844  -3.977  0.00  0.00    -0.007 A 
ATOM     23  C   LIG d   1      21.270   6.611  -3.863  0.00  0.00     0.056 A 
ATOM     24  C   LIG d   1      17.655   6.327  -4.401  0.00  0.00     0.016 A 
ATOM     25  C   LIG d   1      18.965   8.052  -3.267  0.00  0.00     0.015 A 
ATOM     26  C   LIG d   1      17.620   5.132  -5.113  0.00  0.00     0.032 A 
ATOM     27  C   LIG d   1      20.205   8.537  -2.857  0.00  0.00     0.025 A 
ATOM     28  C   LIG d   1      21.353   7.811  -3.157  0.00  0.00     0.036 A 
ATOM     29 CL   LIG d   1      22.889   8.402  -2.652  0.00  0.00    -0.084 Cl
ENDBRANCH  18  19
ENDBRANCH  13  17
ENDBRANCH   1  11
BRANCH   1  30
ATOM     30  C   LIG d   1      16.436  -1.921  -5.540  0.00  0.00     0.025 C 
BRANCH  30  31
ATOM     31  C   LIG d   1      16.519  -3.082  -4.532  0.00  0.00     0.040 C 
BRANCH  31  32
ATOM     32  C   LIG d   1      17.856  -3.149  -3.816  0.00  0.00    -0.049 A 
ATOM     33  C   LIG d   1      18.742  -4.257  -3.824  0.00  0.00    -0.019 A 
ATOM     34  C   LIG d   1      19.989  -4.086  -3.169  0.00  0.00     0.011 A 
ATOM     35  C   LIG d   1      20.332  -2.913  -2.493  0.00  0.00     0.001 A 
ATOM     36  C   LIG d   1      19.437  -1.858  -2.453  0.00  0.00     0.001 A 
ATOM     37  C   LIG d   1      18.218  -1.975  -3.110  0.00  0.00     0.007 A 
BRANCH  33  38
ATOM     38  C   LIG d   1      18.452  -5.616  -4.489  0.00  0.00     0.078 C 
ATOM     39  C   LIG d   1      18.360  -5.530  -6.022  0.00  0.00     0.051 C 
ATOM     40  C   LIG d   1      19.421  -6.711  -4.034  0.00  0.00     0.051 C 
BRANCH  38  41
ATOM     41  O   LIG d   1      17.152  -6.102  -4.081  0.00  0.00    -0.386 OA
ATOM     42  H   LIG d   1      17.303  -6.939  -3.608  0.00  0.00     0.211 HD
ENDBRANCH  38  41
ENDBRANCH  33  38
ENDBRANCH  31  32
ENDBRANCH  30  31
ENDBRANCH   1  30
TORSDOF 13
ENDMDL
MODEL 4
REMARK VINA RESULT:      -7.6     29.222     31.780
REMARK  13 active torsions:
REMARK  status: ('A' for Active; 'I' for Inactive)
REMARK    1  A    between atoms: S_2  and  C_10 
REMARK    2  A    between atoms: S_2  and  C_13 
REMARK    3  A    between atoms: O_5  and  C_23 
REMARK    4  A    between atoms: C_7  and  C_10 
REMARK    5  A    between atoms: C_7  and  C_11 
REMARK    6  A    between atoms: C_11  and  C_12 
REMARK    7  A    between atoms: C_13  and  C_15 
REMARK    8  A    between atoms: C_13  and  C_14 
REMARK    9  A    between atoms: C_14  and  C_16 
REMARK   10  A    between atoms: C_16  and  C_19 
REMARK   11  A    between atoms: C_20  and  C_23 
REMARK   12  A    between atoms: C_21  and  C_28 
REMARK   13  A    between atoms: C_32  and  C_33 
ROOT
ATOM      1  C   LIG d   1       9.294  -2.635  24.142  0.00  0.00     0.080 C 
ENDROOT
BRANCH   1   2
ATOM      2  S   LIG d   1       9.010  -4.242  24.990  0.00  0.00    -0.159 SA
BRANCH   2   3
ATOM      3  C   LIG d   1       7.193  -4.171  25.125  0.00  0.00     0.084 C 
BRANCH   3   4
ATOM      4  C   LIG d   1       6.560  -4.528  23.795  0.00  0.00    -0.022 A 
ATOM      5  C   LIG d   1       6.236  -3.389  22.843  0.00  0.00     0.011 A 
ATOM      6  C   LIG d   1       5.120  -4.105  23.539  0.00  0.00     0.011 A 
BRANCH   4   7
ATOM      7  C   LIG d   1       7.054  -5.826  23.159  0.00  0.00     0.123 C 
BRANCH   7   8
ATOM      8  C   LIG d   1       7.647  -5.632  21.754  0.00  0.00     0.173 C 
ATOM      9  O   LIG d   1       8.863  -5.281  21.722  0.00  0.00    -0.648 OA
ATOM     10  O   LIG d   1       6.853  -5.853  20.797  0.00  0.00    -0.648 OA
ENDBRANCH   7   8
ENDBRANCH   4   7
ENDBRANCH   3   4
ENDBRANCH   2   3
ENDBRANCH   1   2
BRANCH   1  11
ATOM     11  C   LIG d   1       8.892  -1.454  25.017  0.00  0.00    -0.043 A 
ATOM     12  C   LIG d   1       7.915  -0.529  24.606  0.00  0.00     0.019 A 
ATOM     13  C   LIG d   1       7.565   0.572  25.401  0.00  0.00    -0.036 A 
ATOM     14  C   LIG d   1       8.186   0.731  26.642  0.00  0.00     0.011 A 
ATOM     15  C   LIG d   1       9.140  -0.191  27.077  0.00  0.00     0.001 A 
ATOM     16  C   LIG d   1       9.496  -1.271  26.268  0.00  0.00     0.008 A 
BRANCH  13  17
ATOM     17  C   LIG d   1       6.646   1.570  24.836  0.00  0.00     0.014 C 
ATOM     18  C   LIG d   1       6.994   2.544  23.978  0.00  0.00     0.032 C 
BRANCH  18  19
ATOM     19  C   LIG d   1       6.057   3.506  23.383  0.00  0.00     0.057 A 
ATOM     20  N   LIG d   1       4.899   2.958  22.941  0.00  0.00    -0.248 NA
ATOM     21  C   LIG d   1       3.970   3.762  22.397  0.00  0.00     0.069 A 
ATOM     22  C   LIG d   1       4.163   5.152  22.251  0.00  0.00    -0.007 A 
ATOM     23  C   LIG d   1       2.772   3.215  21.963  0.00  0.00     0.056 A 
ATOM     24  C   LIG d   1       5.376   5.692  22.686  0.00  0.00     0.016 A 
ATOM     25  C   LIG d   1       3.161   5.957  21.684  0.00  0.00     0.015 A 
ATOM     26  C   LIG d   1       6.336   4.860  23.253  0.00  0.00     0.032 A 
ATOM     27  C   LIG d   1       1.964   5.385  21.259  0.00  0.00     0.025 A 
ATOM     28  C   LIG d   1       1.777   4.014  21.400  0.00  0.00     0.036 A 
ATOM     29 CL   LIG d   1       0.302   3.299  20.874  0.00  0.00    -0.084 Cl
ENDBRANCH  18  19
ENDBRANCH  13  17
ENDBRANCH   1  11
BRANCH   1  30
ATOM     30  C   LIG d   1      10.773  -2.560  23.708  0.00  0.00     0.025 C 
BRANCH  30  31
ATOM     31  C   LIG d   1      10.957  -1.707  22.440  0.00  0.00     0.040 C 
BRANCH  31  32
ATOM     32  C   LIG d   1      10.940  -0.216  22.724  0.00  0.00    -0.049 A 
ATOM     33  C   LIG d   1      10.110   0.738  22.078  0.00  0.00    -0.019 A 
ATOM     34  C   LIG d   1      10.178   2.073  22.553  0.00  0.00     0.011 A 
ATOM     35  C   LIG d   1      11.050   2.469  23.570  0.00  0.00     0.001 A 
ATOM     36  C   LIG d   1      11.888   1.538  24.157  0.00  0.00     0.001 A 
ATOM     37  C   LIG d   1      11.829   0.213  23.741  0.00  0.00     0.007 A 
BRANCH  33  38
ATOM     38  C   LIG d   1       9.150   0.429  20.914  0.00  0.00     0.078 C 
ATOM     39  C   LIG d   1       8.310  -0.838  21.144  0.00  0.00     0.051 C 
ATOM     40  C   LIG d   1       8.281   1.632  20.535  0.00  0.00     0.051 C 
BRANCH  38  41
ATOM     41  O   LIG d   1       9.903   0.144  19.711  0.00  0.00    -0.386 OA
ATOM     42  H   LIG d   1      10.781  -0.161  19.998  0.00  0.00     0.211 HD
ENDBRANCH  38  41
ENDBRANCH  33  38
ENDBRANCH  31  32
ENDBRANCH  30  31
ENDBRANCH   1  30
TORSDOF 13
ENDMDL
MODEL 5
REMARK VINA RESULT:      -7.6     18.681     22.572
REMARK  13 active torsions:
REMARK  status: ('A' for Active; 'I' for Inactive)
REMARK    1  A    between atoms: S_2  and  C_10 
REMARK    2  A    between atoms: S_2  and  C_13 
REMARK    3  A    between atoms: O_5  and  C_23 
REMARK    4  A    between atoms: C_7  and  C_10 
REMARK    5  A    between atoms: C_7  and  C_11 
REMARK    6  A    between atoms: C_11  and  C_12 
REMARK    7  A    between atoms: C_13  and  C_15 
REMARK    8  A    between atoms: C_13  and  C_14 
REMARK    9  A    between atoms: C_14  and  C_16 
REMARK   10  A    between atoms: C_16  and  C_19 
REMARK   11  A    between atoms: C_20  and  C_23 
REMARK   12  A    between atoms: C_21  and  C_28 
REMARK   13  A    between atoms: C_32  and  C_33 
ROOT
ATOM      1  C   LIG d   1       9.778  16.953   2.513  0.00  0.00     0.080 C 
ENDROOT
BRANCH   1   2
ATOM      2  S   LIG d   1       8.660  17.333   1.102  0.00  0.00    -0.159 SA
BRANCH   2   3
ATOM      3  C   LIG d   1       9.813  18.317   0.088  0.00  0.00     0.084 C 
BRANCH   3   4
ATOM      4  C   LIG d   1       9.454  19.787   0.174  0.00  0.00    -0.022 A 
ATOM      5  C   LIG d   1       8.019  20.141   0.527  0.00  0.00     0.011 A 
ATOM      6  C   LIG d   1       8.510  20.366  -0.870  0.00  0.00     0.011 A 
BRANCH   4   7
ATOM      7  C   LIG d   1      10.539  20.696   0.748  0.00  0.00     0.123 C 
BRANCH   7   8
ATOM      8  C   LIG d   1      11.005  20.281   2.153  0.00  0.00     0.173 C 
ATOM      9  O   LIG d   1      10.191  20.529   3.091  0.00  0.00    -0.648 OA
ATOM     10  O   LIG d   1      12.143  19.736   2.206  0.00  0.00    -0.648 OA
ENDBRANCH   7   8
ENDBRANCH   4   7
ENDBRANCH   3   4
ENDBRANCH   2   3
ENDBRANCH   1   2
BRANCH   1  11
ATOM     11  C   LIG d   1       9.122  17.257   3.854  0.00  0.00    -0.043 A 
ATOM     12  C   LIG d   1       9.820  17.115   5.067  0.00  0.00     0.019 A 
ATOM     13  C   LIG d   1       9.206  17.370   6.301  0.00  0.00    -0.036 A 
ATOM     14  C   LIG d   1       7.878  17.803   6.318  0.00  0.00     0.011 A 
ATOM     15  C   LIG d   1       7.178  17.975   5.122  0.00  0.00     0.001 A 
ATOM     16  C   LIG d   1       7.792  17.697   3.900  0.00  0.00     0.008 A 
BRANCH  13  17
ATOM     17  C   LIG d   1       9.956  17.055   7.526  0.00  0.00     0.014 C 
ATOM     18  C   LIG d   1       9.428  16.976   8.758  0.00  0.00     0.032 C 
BRANCH  18  19
ATOM     19  C   LIG d   1      10.179  16.614   9.967  0.00  0.00     0.057 A 
ATOM     20  N   LIG d   1      10.727  15.375   9.934  0.00  0.00    -0.248 NA
ATOM     21  C   LIG d   1      11.450  14.960  10.988  0.00  0.00     0.069 A 
ATOM     22  C   LIG d   1      11.642  15.758  12.136  0.00  0.00    -0.007 A 
ATOM     23  C   LIG d   1      12.035  13.704  10.955  0.00  0.00     0.056 A 
ATOM     24  C   LIG d   1      11.043  17.020  12.162  0.00  0.00     0.016 A 
ATOM     25  C   LIG d   1      12.413  15.287  13.212  0.00  0.00     0.015 A 
ATOM     26  C   LIG d   1      10.298  17.451  11.069  0.00  0.00     0.032 A 
ATOM     27  C   LIG d   1      12.994  14.022  13.154  0.00  0.00     0.025 A 
ATOM     28  C   LIG d   1      12.800  13.236  12.023  0.00  0.00     0.036 A 
ATOM     29 CL   LIG d   1      13.512  11.671  11.945  0.00  0.00    -0.084 Cl
ENDBRANCH  18  19
ENDBRANCH  13  17
ENDBRANCH   1  11
BRANCH   1  30
ATOM     30  C   LIG d   1      10.225  15.481   2.406  0.00  0.00     0.025 C 
BRANCH  30  31
ATOM     31  C   LIG d   1       9.046  14.546   2.077  0.00  0.00     0.040 C 
BRANCH  31  32
ATOM     32  C   LIG d   1       8.886  13.421   3.083  0.00  0.00    -0.049 A 
ATOM     33  C   LIG d   1       8.046  12.288   2.928  0.00  0.00    -0.019 A 
ATOM     34  C   LIG d   1       8.108  11.299   3.944  0.00  0.00     0.011 A 
ATOM     35  C   LIG d   1       8.909  11.433   5.080  0.00  0.00     0.001 A 
ATOM     36  C   LIG d   1       9.687  12.566   5.241  0.00  0.00     0.001 A 
ATOM     37  C   LIG d   1       9.677  13.543   4.253  0.00  0.00     0.007 A 
BRANCH  33  38
ATOM     38  C   LIG d   1       7.083  12.056   1.748  0.00  0.00     0.078 C 
ATOM     39  C   LIG d   1       6.336  10.715   1.833  0.00  0.00     0.051 C 
ATOM     40  C   LIG d   1       6.127  13.233   1.530  0.00  0.00     0.051 C 
BRANCH  38  41
ATOM     41  O   LIG d   1       7.827  11.971   0.509  0.00  0.00    -0.386 OA
ATOM     42  H   LIG d   1       7.481  12.670  -0.072  0.00  0.00     0.211 HD
ENDBRANCH  38  41
ENDBRANCH  33  38
ENDBRANCH  31  32
ENDBRANCH  30  31
ENDBRANCH   1  30
TORSDOF 13
ENDMDL
MODEL 6
REMARK VINA RESULT:      -7.6     20.713     26.665
REMARK  13 active torsions:
REMARK  status: ('A' for Active; 'I' for Inactive)
REMARK    1  A    between atoms: S_2  and  C_10 
REMARK    2  A    between atoms: S_2  and  C_13 
REMARK    3  A    between atoms: O_5  and  C_23 
REMARK    4  A    between atoms: C_7  and  C_10 
REMARK    5  A    between atoms: C_7  and  C_11 
REMARK    6  A    between atoms: C_11  and  C_12 
REMARK    7  A    between atoms: C_13  and  C_15 
REMARK    8  A    between atoms: C_13  and  C_14 
REMARK    9  A    between atoms: C_14  and  C_16 
REMARK   10  A    between atoms: C_16  and  C_19 
REMARK   11  A    between atoms: C_20  and  C_23 
REMARK   12  A    between atoms: C_21  and  C_28 
REMARK   13  A    between atoms: C_32  and  C_33 
ROOT
ATOM      1  C   LIG d   1       7.673  24.814   0.498  0.00  0.00     0.080 C 
ENDROOT
BRANCH   1   2
ATOM      2  S   LIG d   1       6.437  26.120   0.105  0.00  0.00    -0.159 SA
BRANCH   2   3
ATOM      3  C   LIG d   1       5.053  25.512   1.126  0.00  0.00     0.084 C 
BRANCH   3   4
ATOM      4  C   LIG d   1       4.004  24.865   0.244  0.00  0.00    -0.022 A 
ATOM      5  C   LIG d   1       2.692  24.461   0.894  0.00  0.00     0.011 A 
ATOM      6  C   LIG d   1       3.663  23.400   0.478  0.00  0.00     0.011 A 
BRANCH   4   7
ATOM      7  C   LIG d   1       3.919  25.406  -1.182  0.00  0.00     0.123 C 
BRANCH   7   8
ATOM      8  C   LIG d   1       2.791  26.431  -1.381  0.00  0.00     0.173 C 
ATOM      9  O   LIG d   1       2.934  27.525  -0.760  0.00  0.00    -0.648 OA
ATOM     10  O   LIG d   1       1.855  26.063  -2.146  0.00  0.00    -0.648 OA
ENDBRANCH   7   8
ENDBRANCH   4   7
ENDBRANCH   3   4
ENDBRANCH   2   3
ENDBRANCH   1   2
BRANCH   1  11
ATOM     11  C   LIG d   1       7.412  23.534  -0.287  0.00  0.00    -0.043 A 
ATOM     12  C   LIG d   1       7.716  22.268   0.245  0.00  0.00     0.019 A 
ATOM     13  C   LIG d   1       7.500  21.092  -0.488  0.00  0.00    -0.036 A 
ATOM     14  C   LIG d   1       6.942  21.187  -1.766  0.00  0.00     0.011 A 
ATOM     15  C   LIG d   1       6.610  22.434  -2.299  0.00  0.00     0.001 A 
ATOM     16  C   LIG d   1       6.850  23.599  -1.568  0.00  0.00     0.008 A 
BRANCH  13  17
ATOM     17  C   LIG d   1       7.981  19.824   0.079  0.00  0.00     0.014 C 
ATOM     18  C   LIG d   1       8.231  19.605   1.380  0.00  0.00     0.032 C 
BRANCH  18  19
ATOM     19  C   LIG d   1       8.666  18.319   1.942  0.00  0.00     0.057 A 
ATOM     20  N   LIG d   1       7.980  17.246   1.478  0.00  0.00    -0.248 NA
ATOM     21  C   LIG d   1       8.317  16.023   1.919  0.00  0.00     0.069 A 
ATOM     22  C   LIG d   1       9.346  15.815   2.862  0.00  0.00    -0.007 A 
ATOM     23  C   LIG d   1       7.637  14.916   1.432  0.00  0.00     0.056 A 
ATOM     24  C   LIG d   1      10.020  16.937   3.350  0.00  0.00     0.016 A 
ATOM     25  C   LIG d   1       9.671  14.517   3.289  0.00  0.00     0.015 A 
ATOM     26  C   LIG d   1       9.673  18.203   2.890  0.00  0.00     0.032 A 
ATOM     27  C   LIG d   1       8.977  13.421   2.784  0.00  0.00     0.025 A 
ATOM     28  C   LIG d   1       7.960  13.628   1.857  0.00  0.00     0.036 A 
ATOM     29 CL   LIG d   1       7.095  12.278   1.230  0.00  0.00    -0.084 Cl
ENDBRANCH  18  19
ENDBRANCH  13  17
ENDBRANCH   1  11
BRANCH   1  30
ATOM     30  C   LIG d   1       9.085  25.378   0.237  0.00  0.00     0.025 C 
BRANCH  30  31
ATOM     31  C   LIG d   1       9.999  25.229   1.467  0.00  0.00     0.040 C 
BRANCH  31  32
ATOM     32  C   LIG d   1      10.524  23.816   1.645  0.00  0.00    -0.049 A 
ATOM     33  C   LIG d   1      10.446  23.050   2.838  0.00  0.00    -0.019 A 
ATOM     34  C   LIG d   1      10.912  21.712   2.773  0.00  0.00     0.011 A 
ATOM     35  C   LIG d   1      11.476  21.165   1.619  0.00  0.00     0.001 A 
ATOM     36  C   LIG d   1      11.590  21.938   0.477  0.00  0.00     0.001 A 
ATOM     37  C   LIG d   1      11.116  23.244   0.492  0.00  0.00     0.007 A 
BRANCH  33  38
ATOM     38  C   LIG d   1       9.894  23.563   4.182  0.00  0.00     0.078 C 
ATOM     39  C   LIG d   1      10.680  24.762   4.739  0.00  0.00     0.051 C 
ATOM     40  C   LIG d   1       8.388  23.837   4.133  0.00  0.00     0.051 C 
BRANCH  38  41
ATOM     41  O   LIG d   1      10.034  22.542   5.199  0.00  0.00    -0.386 OA
ATOM     42  H   LIG d   1       9.374  21.856   4.997  0.00  0.00     0.211 HD
ENDBRANCH  38  41
ENDBRANCH  33  38
ENDBRANCH  31  32
ENDBRANCH  30  31
ENDBRANCH   1  30
TORSDOF 13
ENDMDL
MODEL 7
REMARK VINA RESULT:      -7.5     18.958     21.926
REMARK  13 active torsions:
REMARK  status: ('A' for Active; 'I' for Inactive)
REMARK    1  A    between atoms: S_2  and  C_10 
REMARK    2  A    between atoms: S_2  and  C_13 
REMARK    3  A    between atoms: O_5  and  C_23 
REMARK    4  A    between atoms: C_7  and  C_10 
REMARK    5  A    between atoms: C_7  and  C_11 
REMARK    6  A    between atoms: C_11  and  C_12 
REMARK    7  A    between atoms: C_13  and  C_15 
REMARK    8  A    between atoms: C_13  and  C_14 
REMARK    9  A    between atoms: C_14  and  C_16 
REMARK   10  A    between atoms: C_16  and  C_19 
REMARK   11  A    between atoms: C_20  and  C_23 
REMARK   12  A    between atoms: C_21  and  C_28 
REMARK   13  A    between atoms: C_32  and  C_33 
ROOT
ATOM      1  C   LIG d   1       6.085  13.950   2.163  0.00  0.00     0.080 C 
ENDROOT
BRANCH   1   2
ATOM      2  S   LIG d   1       4.820  13.913   0.827  0.00  0.00    -0.159 SA
BRANCH   2   3
ATOM      3  C   LIG d   1       3.322  14.065   1.856  0.00  0.00     0.084 C 
BRANCH   3   4
ATOM      4  C   LIG d   1       2.393  12.896   1.594  0.00  0.00    -0.022 A 
ATOM      5  C   LIG d   1       1.342  12.585   2.646  0.00  0.00     0.011 A 
ATOM      6  C   LIG d   1       2.511  11.663   2.479  0.00  0.00     0.011 A 
BRANCH   4   7
ATOM      7  C   LIG d   1       1.976  12.702   0.137  0.00  0.00     0.123 C 
BRANCH   7   8
ATOM      8  C   LIG d   1       0.586  13.275  -0.183  0.00  0.00     0.173 C 
ATOM      9  O   LIG d   1      -0.324  12.417  -0.380  0.00  0.00    -0.648 OA
ATOM     10  O   LIG d   1       0.514  14.536  -0.207  0.00  0.00    -0.648 OA
ENDBRANCH   7   8
ENDBRANCH   4   7
ENDBRANCH   3   4
ENDBRANCH   2   3
ENDBRANCH   1   2
BRANCH   1  11
ATOM     11  C   LIG d   1       7.284  14.810   1.783  0.00  0.00    -0.043 A 
ATOM     12  C   LIG d   1       7.150  16.182   1.505  0.00  0.00     0.019 A 
ATOM     13  C   LIG d   1       8.249  16.967   1.130  0.00  0.00    -0.036 A 
ATOM     14  C   LIG d   1       9.511  16.371   1.062  0.00  0.00     0.011 A 
ATOM     15  C   LIG d   1       9.668  15.016   1.360  0.00  0.00     0.001 A 
ATOM     16  C   LIG d   1       8.562  14.239   1.711  0.00  0.00     0.008 A 
BRANCH  13  17
ATOM     17  C   LIG d   1       8.000  18.354   0.714  0.00  0.00     0.014 C 
ATOM     18  C   LIG d   1       8.757  19.050  -0.152  0.00  0.00     0.032 C 
BRANCH  18  19
ATOM     19  C   LIG d   1       8.471  20.420  -0.597  0.00  0.00     0.057 A 
ATOM     20  N   LIG d   1       7.155  20.743  -0.602  0.00  0.00    -0.248 NA
ATOM     21  C   LIG d   1       6.794  21.981  -0.977  0.00  0.00     0.069 A 
ATOM     22  C   LIG d   1       7.734  22.953  -1.384  0.00  0.00    -0.007 A 
ATOM     23  C   LIG d   1       5.452  22.329  -0.962  0.00  0.00     0.056 A 
ATOM     24  C   LIG d   1       9.082  22.589  -1.401  0.00  0.00     0.016 A 
ATOM     25  C   LIG d   1       7.313  24.239  -1.760  0.00  0.00     0.015 A 
ATOM     26  C   LIG d   1       9.456  21.308  -1.009  0.00  0.00     0.032 A 
ATOM     27  C   LIG d   1       5.959  24.566  -1.734  0.00  0.00     0.025 A 
ATOM     28  C   LIG d   1       5.035  23.607  -1.335  0.00  0.00     0.036 A 
ATOM     29 CL   LIG d   1       3.360  24.002  -1.304  0.00  0.00    -0.084 Cl
ENDBRANCH  18  19
ENDBRANCH  13  17
ENDBRANCH   1  11
BRANCH   1  30
ATOM     30  C   LIG d   1       5.414  14.432   3.465  0.00  0.00     0.025 C 
BRANCH  30  31
ATOM     31  C   LIG d   1       5.865  13.606   4.684  0.00  0.00     0.040 C 
BRANCH  31  32
ATOM     32  C   LIG d   1       7.346  13.754   4.982  0.00  0.00    -0.049 A 
ATOM     33  C   LIG d   1       8.314  12.720   4.894  0.00  0.00    -0.019 A 
ATOM     34  C   LIG d   1       9.665  13.084   5.123  0.00  0.00     0.011 A 
ATOM     35  C   LIG d   1      10.048  14.381   5.474  0.00  0.00     0.001 A 
ATOM     36  C   LIG d   1       9.088  15.369   5.603  0.00  0.00     0.001 A 
ATOM     37  C   LIG d   1       7.756  15.058   5.356  0.00  0.00     0.007 A 
BRANCH  33  38
ATOM     38  C   LIG d   1       8.004  11.246   4.568  0.00  0.00     0.078 C 
ATOM     39  C   LIG d   1       6.910  10.647   5.468  0.00  0.00     0.051 C 
ATOM     40  C   LIG d   1       7.711  11.022   3.082  0.00  0.00     0.051 C 
BRANCH  38  41
ATOM     41  O   LIG d   1       9.168  10.425   4.827  0.00  0.00    -0.386 OA
ATOM     42  H   LIG d   1       9.810  10.990   5.291  0.00  0.00     0.211 HD
ENDBRANCH  38  41
ENDBRANCH  33  38
ENDBRANCH  31  32
ENDBRANCH  30  31
ENDBRANCH   1  30
TORSDOF 13
ENDMDL
MODEL 8
REMARK VINA RESULT:      -7.5      5.448      9.420
REMARK  13 active torsions:
REMARK  status: ('A' for Active; 'I' for Inactive)
REMARK    1  A    between atoms: S_2  and  C_10 
REMARK    2  A    between atoms: S_2  and  C_13 
REMARK    3  A    between atoms: O_5  and  C_23 
REMARK    4  A    between atoms: C_7  and  C_10 
REMARK    5  A    between atoms: C_7  and  C_11 
REMARK    6  A    between atoms: C_11  and  C_12 
REMARK    7  A    between atoms: C_13  and  C_15 
REMARK    8  A    between atoms: C_13  and  C_14 
REMARK    9  A    between atoms: C_14  and  C_16 
REMARK   10  A    between atoms: C_16  and  C_19 
REMARK   11  A    between atoms: C_20  and  C_23 
REMARK   12  A    between atoms: C_21  and  C_28 
REMARK   13  A    between atoms: C_32  and  C_33 
ROOT
ATOM      1  C   LIG d   1      19.123  -4.833  -4.808  0.00  0.00     0.080 C 
ENDROOT
BRANCH   1   2
ATOM      2  S   LIG d   1      20.904  -4.839  -4.350  0.00  0.00    -0.159 SA
BRANCH   2   3
ATOM      3  C   LIG d   1      20.823  -3.746  -2.893  0.00  0.00     0.084 C 
BRANCH   3   4
ATOM      4  C   LIG d   1      21.470  -2.412  -3.209  0.00  0.00    -0.022 A 
ATOM      5  C   LIG d   1      22.833  -2.433  -3.880  0.00  0.00     0.011 A 
ATOM      6  C   LIG d   1      22.726  -2.016  -2.446  0.00  0.00     0.011 A 
BRANCH   4   7
ATOM      7  C   LIG d   1      20.513  -1.304  -3.647  0.00  0.00     0.123 C 
BRANCH   7   8
ATOM      8  C   LIG d   1      19.508  -0.898  -2.558  0.00  0.00     0.173 C 
ATOM      9  O   LIG d   1      18.403  -1.516  -2.580  0.00  0.00    -0.648 OA
ATOM     10  O   LIG d   1      19.905   0.002  -1.765  0.00  0.00    -0.648 OA
ENDBRANCH   7   8
ENDBRANCH   4   7
ENDBRANCH   3   4
ENDBRANCH   2   3
ENDBRANCH   1   2
BRANCH   1  11
ATOM     11  C   LIG d   1      18.880  -5.523  -6.145  0.00  0.00    -0.043 A 
ATOM     12  C   LIG d   1      17.995  -4.990  -7.100  0.00  0.00     0.019 A 
ATOM     13  C   LIG d   1      17.753  -5.640  -8.319  0.00  0.00    -0.036 A 
ATOM     14  C   LIG d   1      18.432  -6.829  -8.597  0.00  0.00     0.011 A 
ATOM     15  C   LIG d   1      19.333  -7.358  -7.671  0.00  0.00     0.001 A 
ATOM     16  C   LIG d   1      19.550  -6.714  -6.452  0.00  0.00     0.008 A 
BRANCH  13  17
ATOM     17  C   LIG d   1      16.705  -5.097  -9.196  0.00  0.00     0.014 C 
ATOM     18  C   LIG d   1      15.399  -5.398  -9.119  0.00  0.00     0.032 C 
BRANCH  18  19
ATOM     19  C   LIG d   1      14.355  -4.813  -9.970  0.00  0.00     0.057 A 
ATOM     20  N   LIG d   1      14.694  -3.630 -10.538  0.00  0.00    -0.248 NA
ATOM     21  C   LIG d   1      13.811  -3.025 -11.350  0.00  0.00     0.069 A 
ATOM     22  C   LIG d   1      12.535  -3.566 -11.618  0.00  0.00    -0.007 A 
ATOM     23  C   LIG d   1      14.158  -1.827 -11.954  0.00  0.00     0.056 A 
ATOM     24  C   LIG d   1      12.194  -4.771 -10.998  0.00  0.00     0.016 A 
ATOM     25  C   LIG d   1      11.646  -2.904 -12.480  0.00  0.00     0.015 A 
ATOM     26  C   LIG d   1      13.110  -5.399 -10.161  0.00  0.00     0.032 A 
ATOM     27  C   LIG d   1      12.018  -1.703 -13.079  0.00  0.00     0.025 A 
ATOM     28  C   LIG d   1      13.275  -1.169 -12.811  0.00  0.00     0.036 A 
ATOM     29 CL   LIG d   1      13.741   0.316 -13.544  0.00  0.00    -0.084 Cl
ENDBRANCH  18  19
ENDBRANCH  13  17
ENDBRANCH   1  11
BRANCH   1  30
ATOM     30  C   LIG d   1      18.318  -5.484  -3.665  0.00  0.00     0.025 C 
BRANCH  30  31
ATOM     31  C   LIG d   1      17.042  -4.687  -3.334  0.00  0.00     0.040 C 
BRANCH  31  32
ATOM     32  C   LIG d   1      15.911  -4.950  -4.312  0.00  0.00    -0.049 A 
ATOM     33  C   LIG d   1      15.226  -3.962  -5.067  0.00  0.00    -0.019 A 
ATOM     34  C   LIG d   1      14.260  -4.422  -5.998  0.00  0.00     0.011 A 
ATOM     35  C   LIG d   1      13.939  -5.773  -6.148  0.00  0.00     0.001 A 
ATOM     36  C   LIG d   1      14.582  -6.721  -5.371  0.00  0.00     0.001 A 
ATOM     37  C   LIG d   1      15.557  -6.312  -4.469  0.00  0.00     0.007 A 
BRANCH  33  38
ATOM     38  C   LIG d   1      15.456  -2.443  -4.950  0.00  0.00     0.078 C 
ATOM     39  C   LIG d   1      16.794  -1.987  -5.555  0.00  0.00     0.051 C 
ATOM     40  C   LIG d   1      14.277  -1.627  -5.487  0.00  0.00     0.051 C 
BRANCH  38  41
ATOM     41  O   LIG d   1      15.546  -2.060  -3.557  0.00  0.00    -0.386 OA
ATOM     42  H   LIG d   1      14.783  -1.484  -3.377  0.00  0.00     0.211 HD
ENDBRANCH  38  41
ENDBRANCH  33  38
ENDBRANCH  31  32
ENDBRANCH  30  31
ENDBRANCH   1  30
TORSDOF 13
ENDMDL
MODEL 9
REMARK VINA RESULT:      -7.5     19.548     24.970
REMARK  13 active torsions:
REMARK  status: ('A' for Active; 'I' for Inactive)
REMARK    1  A    between atoms: S_2  and  C_10 
REMARK    2  A    between atoms: S_2  and  C_13 
REMARK    3  A    between atoms: O_5  and  C_23 
REMARK    4  A    between atoms: C_7  and  C_10 
REMARK    5  A    between atoms: C_7  and  C_11 
REMARK    6  A    between atoms: C_11  and  C_12 
REMARK    7  A    between atoms: C_13  and  C_15 
REMARK    8  A    between atoms: C_13  and  C_14 
REMARK    9  A    between atoms: C_14  and  C_16 
REMARK   10  A    between atoms: C_16  and  C_19 
REMARK   11  A    between atoms: C_20  and  C_23 
REMARK   12  A    between atoms: C_21  and  C_28 
REMARK   13  A    between atoms: C_32  and  C_33 
ROOT
ATOM      1  C   LIG d   1      11.479  21.447   1.654  0.00  0.00     0.080 C 
ENDROOT
BRANCH   1   2
ATOM      2  S   LIG d   1      11.183  21.889   3.416  0.00  0.00    -0.159 SA
BRANCH   2   3
ATOM      3  C   LIG d   1      12.562  20.967   4.172  0.00  0.00     0.084 C 
BRANCH   3   4
ATOM      4  C   LIG d   1      12.160  20.467   5.545  0.00  0.00    -0.022 A 
ATOM      5  C   LIG d   1      10.875  21.014   6.143  0.00  0.00     0.011 A 
ATOM      6  C   LIG d   1      12.192  21.445   6.711  0.00  0.00     0.011 A 
BRANCH   4   7
ATOM      7  C   LIG d   1      12.470  18.998   5.827  0.00  0.00     0.123 C 
BRANCH   7   8
ATOM      8  C   LIG d   1      11.583  18.023   5.037  0.00  0.00     0.173 C 
ATOM      9  O   LIG d   1      10.443  17.798   5.538  0.00  0.00    -0.648 OA
ATOM     10  O   LIG d   1      12.096  17.564   3.977  0.00  0.00    -0.648 OA
ENDBRANCH   7   8
ENDBRANCH   4   7
ENDBRANCH   3   4
ENDBRANCH   2   3
ENDBRANCH   1   2
BRANCH   1  11
ATOM     11  C   LIG d   1      10.469  20.423   1.151  0.00  0.00    -0.043 A 
ATOM     12  C   LIG d   1      10.093  19.313   1.928  0.00  0.00     0.019 A 
ATOM     13  C   LIG d   1       9.184  18.357   1.453  0.00  0.00    -0.036 A 
ATOM     14  C   LIG d   1       8.620  18.534   0.186  0.00  0.00     0.011 A 
ATOM     15  C   LIG d   1       8.963  19.644  -0.589  0.00  0.00     0.001 A 
ATOM     16  C   LIG d   1       9.886  20.577  -0.114  0.00  0.00     0.008 A 
BRANCH  13  17
ATOM     17  C   LIG d   1       8.957  17.153   2.264  0.00  0.00     0.014 C 
ATOM     18  C   LIG d   1       9.289  15.903   1.903  0.00  0.00     0.032 C 
BRANCH  18  19
ATOM     19  C   LIG d   1       9.101  14.713   2.742  0.00  0.00     0.057 A 
ATOM     20  N   LIG d   1       8.164  13.848   2.284  0.00  0.00    -0.248 NA
ATOM     21  C   LIG d   1       7.933  12.719   2.975  0.00  0.00     0.069 A 
ATOM     22  C   LIG d   1       8.615  12.409   4.170  0.00  0.00    -0.007 A 
ATOM     23  C   LIG d   1       6.993  11.816   2.501  0.00  0.00     0.056 A 
ATOM     24  C   LIG d   1       9.555  13.329   4.641  0.00  0.00     0.016 A 
ATOM     25  C   LIG d   1       8.348  11.213   4.856  0.00  0.00     0.015 A 
ATOM     26  C   LIG d   1       9.797  14.496   3.924  0.00  0.00     0.032 A 
ATOM     27  C   LIG d   1       7.402  10.320   4.359  0.00  0.00     0.025 A 
ATOM     28  C   LIG d   1       6.728  10.627   3.182  0.00  0.00     0.036 A 
ATOM     29 CL   LIG d   1       5.555   9.530   2.562  0.00  0.00    -0.084 Cl
ENDBRANCH  18  19
ENDBRANCH  13  17
ENDBRANCH   1  11
BRANCH   1  30
ATOM     30  C   LIG d   1      11.464  22.740   0.812  0.00  0.00     0.025 C 
BRANCH  30  31
ATOM     31  C   LIG d   1      10.420  23.748   1.326  0.00  0.00     0.040 C 
BRANCH  31  32
ATOM     32  C   LIG d   1       9.221  23.879   0.404  0.00  0.00    -0.049 A 
ATOM     33  C   LIG d   1       7.862  23.774   0.798  0.00  0.00    -0.019 A 
ATOM     34  C   LIG d   1       6.884  24.021  -0.200  0.00  0.00     0.011 A 
ATOM     35  C   LIG d   1       7.215  24.302  -1.527  0.00  0.00     0.001 A 
ATOM     36  C   LIG d   1       8.544  24.355  -1.907  0.00  0.00     0.001 A 
ATOM     37  C   LIG d   1       9.532  24.149  -0.952  0.00  0.00     0.007 A 
BRANCH  33  38
ATOM     38  C   LIG d   1       7.378  23.417   2.216  0.00  0.00     0.078 C 
ATOM     39  C   LIG d   1       5.971  23.957   2.526  0.00  0.00     0.051 C 
ATOM     40  C   LIG d   1       7.497  21.920   2.518  0.00  0.00     0.051 C 
BRANCH  38  41
ATOM     41  O   LIG d   1       8.227  24.046   3.205  0.00  0.00    -0.386 OA
ATOM     42  H   LIG d   1       7.968  23.680   4.068  0.00  0.00     0.211 HD
ENDBRANCH  38  41
ENDBRANCH  33  38
ENDBRANCH  31  32
ENDBRANCH  30  31
ENDBRANCH   1  30
TORSDOF 13
ENDMDL
