MODEL 1
REMARK VINA RESULT:      -4.7      0.000      0.000
REMARK  6 active torsions:
REMARK  status: ('A' for Active; 'I' for Inactive)
REMARK    1  A    between atoms: S_1  and  C_8 
REMARK    2  A    between atoms: S_1  and  C_10 
REMARK    3  A    between atoms: N_6  and  C_7 
REMARK    4  A    between atoms: C_7  and  C_9 
REMARK    5  A    between atoms: C_7  and  C_8 
REMARK    6  A    between atoms: C_10  and  C_11 
ROOT
ATOM      1  C   UNK d   1       9.008  -3.565  18.476  0.00  0.00     0.292 C 
ENDROOT
BRANCH   1   2
ATOM      2  N   UNK d   1       9.675  -4.415  17.427  0.00  0.00    -0.065 N 
ATOM      3  H   UNK d   1       9.464  -4.167  16.466  0.00  0.00     0.275 HD
ATOM      4  H   UNK d   1       9.440  -5.438  17.522  0.00  0.00     0.275 HD
ATOM      5  H   UNK d   1      10.688  -4.334  17.634  0.00  0.00     0.275 HD
ENDBRANCH   1   2
BRANCH   1   6
ATOM      6  C   UNK d   1       7.947  -4.398  19.251  0.00  0.00     0.205 C 
ATOM      7  O   UNK d   1       6.787  -3.881  19.139  0.00  0.00    -0.646 OA
ATOM      8  O   UNK d   1       8.330  -5.445  19.827  0.00  0.00    -0.646 OA
ENDBRANCH   1   6
BRANCH   1   9
ATOM      9  C   UNK d   1       8.352  -2.331  17.861  0.00  0.00     0.118 C 
BRANCH   9  10
ATOM     10  S   UNK d   1       8.577  -0.825  18.902  0.00  0.00    -0.156 SA
BRANCH  10  11
ATOM     11  C   UNK d   1       6.827  -0.428  19.297  0.00  0.00     0.186 C 
BRANCH  11  12
ATOM     12  C   UNK d   1       6.377   0.652  18.308  0.00  0.00     0.182 C 
ATOM     13  O   UNK d   1       5.787   1.654  18.827  0.00  0.00    -0.647 OA
ATOM     14  O   UNK d   1       6.610   0.433  17.090  0.00  0.00    -0.647 OA
ENDBRANCH  11  12
ENDBRANCH  10  11
ENDBRANCH   9  10
ENDBRANCH   1   9
TORSDOF 6
ENDMDL
MODEL 2
REMARK VINA RESULT:      -4.5     24.113     25.259
REMARK  6 active torsions:
REMARK  status: ('A' for Active; 'I' for Inactive)
REMARK    1  A    between atoms: S_1  and  C_8 
REMARK    2  A    between atoms: S_1  and  C_10 
REMARK    3  A    between atoms: N_6  and  C_7 
REMARK    4  A    between atoms: C_7  and  C_9 
REMARK    5  A    between atoms: C_7  and  C_8 
REMARK    6  A    between atoms: C_10  and  C_11 
ROOT
ATOM      1  C   UNK d   1      13.638  -0.481  -4.861  0.00  0.00     0.292 C 
ENDROOT
BRANCH   1   2
ATOM      2  N   UNK d   1      12.256  -0.032  -4.464  0.00  0.00    -0.065 N 
ATOM      3  H   UNK d   1      12.161   0.956  -4.254  0.00  0.00     0.275 HD
ATOM      4  H   UNK d   1      11.888  -0.546  -3.621  0.00  0.00     0.275 HD
ATOM      5  H   UNK d   1      11.653  -0.319  -5.259  0.00  0.00     0.275 HD
ENDBRANCH   1   2
BRANCH   1   6
ATOM      6  C   UNK d   1      14.708   0.223  -3.979  0.00  0.00     0.205 C 
ATOM      7  O   UNK d   1      15.406  -0.629  -3.337  0.00  0.00    -0.646 OA
ATOM      8  O   UNK d   1      14.780   1.474  -4.031  0.00  0.00    -0.646 OA
ENDBRANCH   1   6
BRANCH   1   9
ATOM      9  C   UNK d   1      13.913  -0.199  -6.337  0.00  0.00     0.118 C 
BRANCH   9  10
ATOM     10  S   UNK d   1      14.454  -1.708  -7.249  0.00  0.00    -0.156 SA
BRANCH  10  11
ATOM     11  C   UNK d   1      14.305  -2.970  -5.923  0.00  0.00     0.186 C 
BRANCH  11  12
ATOM     12  C   UNK d   1      13.298  -4.018  -6.408  0.00  0.00     0.182 C 
ATOM     13  O   UNK d   1      13.644  -5.230  -6.230  0.00  0.00    -0.647 OA
ATOM     14  O   UNK d   1      12.249  -3.582  -6.951  0.00  0.00    -0.647 OA
ENDBRANCH  11  12
ENDBRANCH  10  11
ENDBRANCH   9  10
ENDBRANCH   1   9
TORSDOF 6
ENDMDL
MODEL 3
REMARK VINA RESULT:      -4.4      2.275      5.339
REMARK  6 active torsions:
REMARK  status: ('A' for Active; 'I' for Inactive)
REMARK    1  A    between atoms: S_1  and  C_8 
REMARK    2  A    between atoms: S_1  and  C_10 
REMARK    3  A    between atoms: N_6  and  C_7 
REMARK    4  A    between atoms: C_7  and  C_9 
REMARK    5  A    between atoms: C_7  and  C_8 
REMARK    6  A    between atoms: C_10  and  C_11 
ROOT
ATOM      1  C   UNK d   1       7.803  -0.083  19.820  0.00  0.00     0.292 C 
ENDROOT
BRANCH   1   2
ATOM      2  N   UNK d   1       6.721  -0.518  20.773  0.00  0.00    -0.065 N 
ATOM      3  H   UNK d   1       6.192  -1.336  20.489  0.00  0.00     0.275 HD
ATOM      4  H   UNK d   1       6.011   0.239  20.955  0.00  0.00     0.275 HD
ATOM      5  H   UNK d   1       7.214  -0.670  21.673  0.00  0.00     0.275 HD
ENDBRANCH   1   2
BRANCH   1   6
ATOM      6  C   UNK d   1       7.179   0.599  18.570  0.00  0.00     0.205 C 
ATOM      7  O   UNK d   1       8.037   0.713  17.633  0.00  0.00    -0.646 OA
ATOM      8  O   UNK d   1       5.962   0.901  18.613  0.00  0.00    -0.646 OA
ENDBRANCH   1   6
BRANCH   1   9
ATOM      9  C   UNK d   1       8.674  -1.262  19.390  0.00  0.00     0.118 C 
BRANCH   9  10
ATOM     10  S   UNK d   1       7.691  -2.605  18.594  0.00  0.00    -0.156 SA
BRANCH  10  11
ATOM     11  C   UNK d   1       9.037  -3.595  17.831  0.00  0.00     0.186 C 
BRANCH  11  12
ATOM     12  C   UNK d   1       8.870  -5.037  18.322  0.00  0.00     0.182 C 
ATOM     13  O   UNK d   1       8.254  -5.168  19.429  0.00  0.00    -0.647 OA
ATOM     14  O   UNK d   1       9.374  -5.939  17.602  0.00  0.00    -0.647 OA
ENDBRANCH  11  12
ENDBRANCH  10  11
ENDBRANCH   9  10
ENDBRANCH   1   9
TORSDOF 6
ENDMDL
MODEL 4
REMARK VINA RESULT:      -4.3      3.799      4.578
REMARK  6 active torsions:
REMARK  status: ('A' for Active; 'I' for Inactive)
REMARK    1  A    between atoms: S_1  and  C_8 
REMARK    2  A    between atoms: S_1  and  C_10 
REMARK    3  A    between atoms: N_6  and  C_7 
REMARK    4  A    between atoms: C_7  and  C_9 
REMARK    5  A    between atoms: C_7  and  C_8 
REMARK    6  A    between atoms: C_10  and  C_11 
ROOT
ATOM      1  C   UNK d   1       8.773  -2.902  19.253  0.00  0.00     0.292 C 
ENDROOT
BRANCH   1   2
ATOM      2  N   UNK d   1       9.263  -2.931  17.829  0.00  0.00    -0.065 N 
ATOM      3  H   UNK d   1       9.145  -3.814  17.345  0.00  0.00     0.275 HD
ATOM      4  H   UNK d   1      10.284  -2.686  17.745  0.00  0.00     0.275 HD
ATOM      5  H   UNK d   1       8.745  -2.162  17.362  0.00  0.00     0.275 HD
ENDBRANCH   1   2
BRANCH   1   6
ATOM      6  C   UNK d   1       7.294  -3.380  19.325  0.00  0.00     0.205 C 
ATOM      7  O   UNK d   1       6.583  -2.804  18.437  0.00  0.00    -0.646 OA
ATOM      8  O   UNK d   1       7.002  -4.257  20.173  0.00  0.00    -0.646 OA
ENDBRANCH   1   6
BRANCH   1   9
ATOM      9  C   UNK d   1       8.898  -1.505  19.858  0.00  0.00     0.118 C 
BRANCH   9  10
ATOM     10  S   UNK d   1       9.540  -1.546  21.587  0.00  0.00    -0.156 SA
BRANCH  10  11
ATOM     11  C   UNK d   1      10.910  -0.330  21.463  0.00  0.00     0.186 C 
BRANCH  11  12
ATOM     12  C   UNK d   1      12.160  -0.998  22.044  0.00  0.00     0.182 C 
ATOM     13  O   UNK d   1      13.261  -0.408  21.794  0.00  0.00    -0.647 OA
ATOM     14  O   UNK d   1      11.981  -2.067  22.685  0.00  0.00    -0.647 OA
ENDBRANCH  11  12
ENDBRANCH  10  11
ENDBRANCH   9  10
ENDBRANCH   1   9
TORSDOF 6
ENDMDL
MODEL 5
REMARK VINA RESULT:      -4.3      2.774      3.215
REMARK  6 active torsions:
REMARK  status: ('A' for Active; 'I' for Inactive)
REMARK    1  A    between atoms: S_1  and  C_8 
REMARK    2  A    between atoms: S_1  and  C_10 
REMARK    3  A    between atoms: N_6  and  C_7 
REMARK    4  A    between atoms: C_7  and  C_9 
REMARK    5  A    between atoms: C_7  and  C_8 
REMARK    6  A    between atoms: C_10  and  C_11 
ROOT
ATOM      1  C   UNK d   1       8.682  -2.657  19.611  0.00  0.00     0.292 C 
ENDROOT
BRANCH   1   2
ATOM      2  N   UNK d   1       8.997  -1.495  18.706  0.00  0.00    -0.065 N 
ATOM      3  H   UNK d   1       9.629  -0.801  19.090  0.00  0.00     0.275 HD
ATOM      4  H   UNK d   1       8.135  -0.969  18.405  0.00  0.00     0.275 HD
ATOM      5  H   UNK d   1       9.378  -1.933  17.846  0.00  0.00     0.275 HD
ENDBRANCH   1   2
BRANCH   1   6
ATOM      6  C   UNK d   1       7.325  -3.302  19.209  0.00  0.00     0.205 C 
ATOM      7  O   UNK d   1       7.133  -4.395  19.838  0.00  0.00    -0.646 OA
ATOM      8  O   UNK d   1       6.602  -2.685  18.391  0.00  0.00    -0.646 OA
ENDBRANCH   1   6
BRANCH   1   9
ATOM      9  C   UNK d   1       8.640  -2.226  21.076  0.00  0.00     0.118 C 
BRANCH   9  10
ATOM     10  S   UNK d   1      10.138  -1.269  21.568  0.00  0.00    -0.156 SA
BRANCH  10  11
ATOM     11  C   UNK d   1       9.356   0.163  22.411  0.00  0.00     0.186 C 
BRANCH  11  12
ATOM     12  C   UNK d   1       8.474   0.869  21.376  0.00  0.00     0.182 C 
ATOM     13  O   UNK d   1       9.053   1.171  20.282  0.00  0.00    -0.647 OA
ATOM     14  O   UNK d   1       7.284   1.099  21.713  0.00  0.00    -0.647 OA
ENDBRANCH  11  12
ENDBRANCH  10  11
ENDBRANCH   9  10
ENDBRANCH   1   9
TORSDOF 6
ENDMDL
MODEL 6
REMARK VINA RESULT:      -4.2      3.191      4.515
REMARK  6 active torsions:
REMARK  status: ('A' for Active; 'I' for Inactive)
REMARK    1  A    between atoms: S_1  and  C_8 
REMARK    2  A    between atoms: S_1  and  C_10 
REMARK    3  A    between atoms: N_6  and  C_7 
REMARK    4  A    between atoms: C_7  and  C_9 
REMARK    5  A    between atoms: C_7  and  C_8 
REMARK    6  A    between atoms: C_10  and  C_11 
ROOT
ATOM      1  C   UNK d   1       7.221  -1.069  19.183  0.00  0.00     0.292 C 
ENDROOT
BRANCH   1   2
ATOM      2  N   UNK d   1       6.547  -2.136  18.362  0.00  0.00    -0.065 N 
ATOM      3  H   UNK d   1       6.885  -3.081  18.511  0.00  0.00     0.275 HD
ATOM      4  H   UNK d   1       6.621  -1.960  17.325  0.00  0.00     0.275 HD
ATOM      5  H   UNK d   1       5.540  -2.044  18.595  0.00  0.00     0.275 HD
ENDBRANCH   1   2
BRANCH   1   6
ATOM      6  C   UNK d   1       7.130   0.306  18.460  0.00  0.00     0.205 C 
ATOM      7  O   UNK d   1       8.212   0.571  17.841  0.00  0.00    -0.646 OA
ATOM      8  O   UNK d   1       6.047   0.936  18.533  0.00  0.00    -0.646 OA
ENDBRANCH   1   6
BRANCH   1   9
ATOM      9  C   UNK d   1       8.683  -1.416  19.457  0.00  0.00     0.118 C 
BRANCH   9  10
ATOM     10  S   UNK d   1       8.975  -1.876  21.219  0.00  0.00    -0.156 SA
BRANCH  10  11
ATOM     11  C   UNK d   1       8.851  -0.226  22.018  0.00  0.00     0.186 C 
BRANCH  11  12
ATOM     12  C   UNK d   1       9.896   0.676  21.355  0.00  0.00     0.182 C 
ATOM     13  O   UNK d   1      11.104   0.289  21.472  0.00  0.00    -0.647 OA
ATOM     14  O   UNK d   1       9.465   1.712  20.784  0.00  0.00    -0.647 OA
ENDBRANCH  11  12
ENDBRANCH  10  11
ENDBRANCH   9  10
ENDBRANCH   1   9
TORSDOF 6
ENDMDL
MODEL 7
REMARK VINA RESULT:      -4.2      3.755      4.648
REMARK  6 active torsions:
REMARK  status: ('A' for Active; 'I' for Inactive)
REMARK    1  A    between atoms: S_1  and  C_8 
REMARK    2  A    between atoms: S_1  and  C_10 
REMARK    3  A    between atoms: N_6  and  C_7 
REMARK    4  A    between atoms: C_7  and  C_9 
REMARK    5  A    between atoms: C_7  and  C_8 
REMARK    6  A    between atoms: C_10  and  C_11 
ROOT
ATOM      1  C   UNK d   1       7.605  -0.662  18.515  0.00  0.00     0.292 C 
ENDROOT
BRANCH   1   2
ATOM      2  N   UNK d   1       6.436  -0.048  17.789  0.00  0.00    -0.065 N 
ATOM      3  H   UNK d   1       6.381  -0.256  16.798  0.00  0.00     0.275 HD
ATOM      4  H   UNK d   1       6.415   1.002  17.869  0.00  0.00     0.275 HD
ATOM      5  H   UNK d   1       5.603  -0.391  18.304  0.00  0.00     0.275 HD
ENDBRANCH   1   2
BRANCH   1   6
ATOM      6  C   UNK d   1       7.636  -2.200  18.285  0.00  0.00     0.205 C 
ATOM      7  O   UNK d   1       8.806  -2.592  17.965  0.00  0.00    -0.646 OA
ATOM      8  O   UNK d   1       6.574  -2.841  18.471  0.00  0.00    -0.646 OA
ENDBRANCH   1   6
BRANCH   1   9
ATOM      9  C   UNK d   1       7.552  -0.360  20.012  0.00  0.00     0.118 C 
BRANCH   9  10
ATOM     10  S   UNK d   1       9.202   0.113  20.689  0.00  0.00    -0.156 SA
BRANCH  10  11
ATOM     11  C   UNK d   1       9.807  -1.523  21.265  0.00  0.00     0.186 C 
BRANCH  11  12
ATOM     12  C   UNK d   1      10.583  -1.285  22.564  0.00  0.00     0.182 C 
ATOM     13  O   UNK d   1       9.993  -0.558  23.427  0.00  0.00    -0.647 OA
ATOM     14  O   UNK d   1      11.727  -1.806  22.640  0.00  0.00    -0.647 OA
ENDBRANCH  11  12
ENDBRANCH  10  11
ENDBRANCH   9  10
ENDBRANCH   1   9
TORSDOF 6
ENDMDL
MODEL 8
REMARK VINA RESULT:      -4.2      3.747      4.233
REMARK  6 active torsions:
REMARK  status: ('A' for Active; 'I' for Inactive)
REMARK    1  A    between atoms: S_1  and  C_8 
REMARK    2  A    between atoms: S_1  and  C_10 
REMARK    3  A    between atoms: N_6  and  C_7 
REMARK    4  A    between atoms: C_7  and  C_9 
REMARK    5  A    between atoms: C_7  and  C_8 
REMARK    6  A    between atoms: C_10  and  C_11 
ROOT
ATOM      1  C   UNK d   1       7.627  -1.078  20.000  0.00  0.00     0.292 C 
ENDROOT
BRANCH   1   2
ATOM      2  N   UNK d   1       6.513  -0.311  20.663  0.00  0.00    -0.065 N 
ATOM      3  H   UNK d   1       5.574  -0.613  20.427  0.00  0.00     0.275 HD
ATOM      4  H   UNK d   1       6.548   0.721  20.451  0.00  0.00     0.275 HD
ATOM      5  H   UNK d   1       6.706  -0.401  21.678  0.00  0.00     0.275 HD
ENDBRANCH   1   2
BRANCH   1   6
ATOM      6  C   UNK d   1       7.073  -1.911  18.809  0.00  0.00     0.205 C 
ATOM      7  O   UNK d   1       7.179  -1.269  17.712  0.00  0.00    -0.646 OA
ATOM      8  O   UNK d   1       6.650  -3.067  19.048  0.00  0.00    -0.646 OA
ENDBRANCH   1   6
BRANCH   1   9
ATOM      9  C   UNK d   1       8.338  -1.997  20.992  0.00  0.00     0.118 C 
BRANCH   9  10
ATOM     10  S   UNK d   1      10.033  -1.400  21.408  0.00  0.00    -0.156 SA
BRANCH  10  11
ATOM     11  C   UNK d   1       9.625   0.095  22.396  0.00  0.00     0.186 C 
BRANCH  11  12
ATOM     12  C   UNK d   1      10.110   1.309  21.597  0.00  0.00     0.182 C 
ATOM     13  O   UNK d   1      11.320   1.648  21.802  0.00  0.00    -0.647 OA
ATOM     14  O   UNK d   1       9.266   1.859  20.842  0.00  0.00    -0.647 OA
ENDBRANCH  11  12
ENDBRANCH  10  11
ENDBRANCH   9  10
ENDBRANCH   1   9
TORSDOF 6
ENDMDL
MODEL 9
REMARK VINA RESULT:      -4.0      2.393      5.082
REMARK  6 active torsions:
REMARK  status: ('A' for Active; 'I' for Inactive)
REMARK    1  A    between atoms: S_1  and  C_8 
REMARK    2  A    between atoms: S_1  and  C_10 
REMARK    3  A    between atoms: N_6  and  C_7 
REMARK    4  A    between atoms: C_7  and  C_9 
REMARK    5  A    between atoms: C_7  and  C_8 
REMARK    6  A    between atoms: C_10  and  C_11 
ROOT
ATOM      1  C   UNK d   1       8.281  -0.065  19.574  0.00  0.00     0.292 C 
ENDROOT
BRANCH   1   2
ATOM      2  N   UNK d   1       9.560  -0.663  20.098  0.00  0.00    -0.065 N 
ATOM      3  H   UNK d   1      10.092  -1.209  19.430  0.00  0.00     0.275 HD
ATOM      4  H   UNK d   1       9.403  -1.292  20.929  0.00  0.00     0.275 HD
ATOM      5  H   UNK d   1      10.099   0.149  20.453  0.00  0.00     0.275 HD
ENDBRANCH   1   2
BRANCH   1   6
ATOM      6  C   UNK d   1       7.209  -0.009  20.700  0.00  0.00     0.205 C 
ATOM      7  O   UNK d   1       7.686  -0.425  21.807  0.00  0.00    -0.646 OA
ATOM      8  O   UNK d   1       6.079   0.452  20.412  0.00  0.00    -0.646 OA
ENDBRANCH   1   6
BRANCH   1   9
ATOM      9  C   UNK d   1       7.743  -0.855  18.382  0.00  0.00     0.118 C 
BRANCH   9  10
ATOM     10  S   UNK d   1       7.478  -2.635  18.785  0.00  0.00    -0.156 SA
BRANCH  10  11
ATOM     11  C   UNK d   1       8.915  -3.389  17.925  0.00  0.00     0.186 C 
BRANCH  11  12
ATOM     12  C   UNK d   1       8.880  -4.891  18.221  0.00  0.00     0.182 C 
ATOM     13  O   UNK d   1       9.861  -5.561  17.759  0.00  0.00    -0.647 OA
ATOM     14  O   UNK d   1       7.885  -5.315  18.865  0.00  0.00    -0.647 OA
ENDBRANCH  11  12
ENDBRANCH  10  11
ENDBRANCH   9  10
ENDBRANCH   1   9
TORSDOF 6
ENDMDL
