REMARK  11 active torsions:
REMARK  status: ('A' for Active; 'I' for Inactive)
REMARK    1  A    between atoms: O_1  and  C_16 
REMARK    2  A    between atoms: O_1  and  C_23 
REMARK    3  A    between atoms: O_2  and  C_20 
REMARK    4  A    between atoms: N_8  and  C_22 
REMARK    5  A    between atoms: N_8  and  C_26 
REMARK    6  A    between atoms: N_9  and  C_24 
REMARK    7  A    between atoms: C_10  and  C_13 
REMARK    8  A    between atoms: C_11  and  C_16 
REMARK    9  A    between atoms: C_12  and  C_20 
REMARK   10  A    between atoms: C_22  and  C_23 
REMARK   11  A    between atoms: C_26  and  C_28 
ROOT
ATOM      1  N   LIG d   1       8.979  -6.321  -0.229  0.00  0.00    -0.362 N 
ATOM      2  C   LIG d   1       9.288  -7.964   2.050  0.00  0.00     0.101 C 
ATOM      3  C   LIG d   1       8.758  -8.482   0.710  0.00  0.00     0.052 C 
ATOM      4  C   LIG d   1       9.802  -6.535   1.980  0.00  0.00     0.052 C 
ATOM      5  C   LIG d   1       8.632  -7.659  -0.357  0.00  0.00     0.018 C 
ATOM      6  C   LIG d   1       9.611  -5.775   0.880  0.00  0.00     0.018 C 
ATOM      7  C   LIG d   1       8.179  -8.087  -1.729  0.00  0.00     0.069 C 
ATOM      8  C   LIG d   1      10.085  -4.349   0.747  0.00  0.00     0.069 C 
ATOM      9  H   LIG d   1       8.939  -5.742  -1.066  0.00  0.00     0.165 HD
ENDROOT
BRANCH   3  10
ATOM     10  C   LIG d   1       8.407  -9.918   0.723  0.00  0.00     0.292 C 
ATOM     11  O   LIG d   1       7.533 -10.416   0.027  0.00  0.00    -0.259 OA
BRANCH  10  12
ATOM     12  O   LIG d   1       9.315 -10.645   1.429  0.00  0.00    -0.316 OA
BRANCH  12  13
ATOM     13  C   LIG d   1       9.739 -11.852   0.772  0.00  0.00     0.206 C 
BRANCH  13  14
ATOM     14  C   LIG d   1       9.725 -13.016   1.771  0.00  0.00     0.261 C 
BRANCH  14  15
ATOM     15  N   LIG d   1       8.634 -12.899   2.816  0.00  0.00    -0.069 N 
ATOM     16  C   LIG d   1       7.492 -13.855   2.561  0.00  0.00     0.270 C 
ATOM     17  H   LIG d   1       8.248 -11.948   2.792  0.00  0.00     0.279 HD
BRANCH  15  18
ATOM     18  C   LIG d   1       9.225 -13.085   4.205  0.00  0.00     0.273 C 
BRANCH  18  19
ATOM     19  C   LIG d   1       9.741 -11.821   4.837  0.00  0.00    -0.033 A 
ATOM     20  C   LIG d   1      10.741 -11.074   4.194  0.00  0.00     0.009 A 
ATOM     21  C   LIG d   1      11.216  -9.892   4.762  0.00  0.00     0.001 A 
ATOM     22  C   LIG d   1      10.702  -9.446   5.977  0.00  0.00     0.000 A 
ATOM     23  C   LIG d   1       9.706 -10.176   6.623  0.00  0.00     0.001 A 
ATOM     24  C   LIG d   1       9.223 -11.356   6.055  0.00  0.00     0.009 A 
ENDBRANCH  18  19
ENDBRANCH  15  18
ENDBRANCH  14  15
ENDBRANCH  13  14
ENDBRANCH  12  13
ENDBRANCH  10  12
ENDBRANCH   3  10
BRANCH   2  25
ATOM     25  C   LIG d   1       8.219  -8.099   3.147  0.00  0.00    -0.042 A 
ATOM     26  C   LIG d   1       7.821  -9.371   3.587  0.00  0.00     0.044 A 
ATOM     27  C   LIG d   1       6.865  -9.486   4.605  0.00  0.00     0.103 A 
ATOM     28  C   LIG d   1       6.291  -8.352   5.192  0.00  0.00     0.036 A 
ATOM     29  C   LIG d   1       6.690  -7.088   4.762  0.00  0.00     0.003 A 
ATOM     30  C   LIG d   1       7.649  -6.962   3.753  0.00  0.00     0.008 A 
BRANCH  27  31
ATOM     31  N   LIG d   1       6.432 -10.814   5.040  0.00  0.00    -0.116 N 
ATOM     32  O   LIG d   1       5.979 -10.924   6.186  0.00  0.00    -0.532 OA
ATOM     33  O   LIG d   1       6.602 -11.751   4.245  0.00  0.00    -0.532 OA
ENDBRANCH  27  31
ENDBRANCH   2  25
BRANCH   4  34
ATOM     34  C   LIG d   1      10.498  -6.008   3.176  0.00  0.00     0.291 C 
ATOM     35  O   LIG d   1      10.271  -4.925   3.691  0.00  0.00    -0.260 OA
BRANCH  34  36
ATOM     36  O   LIG d   1      11.417  -6.916   3.592  0.00  0.00    -0.323 OA
ATOM     37  C   LIG d   1      12.584  -6.339   4.180  0.00  0.00     0.213 C 
ENDBRANCH  34  36
ENDBRANCH   4  34
TORSDOF 11
