REMARK  13 active torsions:
REMARK  status: ('A' for Active; 'I' for Inactive)
REMARK    1  A    between atoms: S_2  and  C_10 
REMARK    2  A    between atoms: S_2  and  C_13 
REMARK    3  A    between atoms: O_5  and  C_23 
REMARK    4  A    between atoms: C_7  and  C_10 
REMARK    5  A    between atoms: C_7  and  C_11 
REMARK    6  A    between atoms: C_11  and  C_12 
REMARK    7  A    between atoms: C_13  and  C_15 
REMARK    8  A    between atoms: C_13  and  C_14 
REMARK    9  A    between atoms: C_14  and  C_16 
REMARK   10  A    between atoms: C_16  and  C_19 
REMARK   11  A    between atoms: C_20  and  C_23 
REMARK   12  A    between atoms: C_21  and  C_28 
REMARK   13  A    between atoms: C_32  and  C_33 
ROOT
ATOM      1  C   LIG d   1       9.515  -4.966  26.592  0.00  0.00     0.080 C 
ENDROOT
BRANCH   1   2
ATOM      2  S   LIG d   1      10.855  -4.015  25.765  0.00  0.00    -0.159 SA
BRANCH   2   3
ATOM      3  C   LIG d   1      10.666  -4.674  24.076  0.00  0.00     0.084 C 
BRANCH   3   4
ATOM      4  C   LIG d   1      11.979  -5.265  23.601  0.00  0.00    -0.022 A 
ATOM      5  C   LIG d   1      12.911  -5.843  24.653  0.00  0.00     0.011 A 
ATOM      6  C   LIG d   1      13.272  -4.556  23.976  0.00  0.00     0.011 A 
BRANCH   4   7
ATOM      7  C   LIG d   1      11.922  -6.002  22.263  0.00  0.00     0.123 C 
BRANCH   7   8
ATOM      8  C   LIG d   1      10.908  -7.156  22.243  0.00  0.00     0.173 C 
ATOM      9  O   LIG d   1       9.774  -6.875  21.754  0.00  0.00    -0.648 OA
ATOM     10  O   LIG d   1      11.326  -8.252  22.713  0.00  0.00    -0.648 OA
ENDBRANCH   7   8
ENDBRANCH   4   7
ENDBRANCH   3   4
ENDBRANCH   2   3
ENDBRANCH   1   2
BRANCH   1  11
ATOM     11  C   LIG d   1       8.179  -4.797  25.879  0.00  0.00    -0.043 A 
ATOM     12  C   LIG d   1       7.776  -5.667  24.850  0.00  0.00     0.019 A 
ATOM     13  C   LIG d   1       6.558  -5.494  24.178  0.00  0.00    -0.036 A 
ATOM     14  C   LIG d   1       5.716  -4.448  24.564  0.00  0.00     0.011 A 
ATOM     15  C   LIG d   1       6.088  -3.591  25.602  0.00  0.00     0.001 A 
ATOM     16  C   LIG d   1       7.313  -3.759  26.249  0.00  0.00     0.008 A 
BRANCH  13  17
ATOM     17  C   LIG d   1       6.279  -6.353  23.018  0.00  0.00     0.014 C 
ATOM     18  C   LIG d   1       7.126  -7.262  22.507  0.00  0.00     0.032 C 
BRANCH  18  19
ATOM     19  C   LIG d   1       6.818  -8.148  21.377  0.00  0.00     0.057 A 
ATOM     20  N   LIG d   1       7.564  -9.279  21.335  0.00  0.00    -0.248 NA
ATOM     21  C   LIG d   1       7.343 -10.163  20.347  0.00  0.00     0.069 A 
ATOM     22  C   LIG d   1       6.377  -9.949  19.342  0.00  0.00    -0.007 A 
ATOM     23  C   LIG d   1       8.085 -11.334  20.309  0.00  0.00     0.056 A 
ATOM     24  C   LIG d   1       5.640  -8.762  19.387  0.00  0.00     0.016 A 
ATOM     25  C   LIG d   1       6.173 -10.904  18.333  0.00  0.00     0.015 A 
ATOM     26  C   LIG d   1       5.866  -7.850  20.412  0.00  0.00     0.032 A 
ATOM     27  C   LIG d   1       6.927 -12.074  18.316  0.00  0.00     0.025 A 
ATOM     28  C   LIG d   1       7.882 -12.283  19.306  0.00  0.00     0.036 A 
ATOM     29 CL   LIG d   1       8.821 -13.725  19.292  0.00  0.00    -0.084 Cl
ENDBRANCH  18  19
ENDBRANCH  13  17
ENDBRANCH   1  11
BRANCH   1  30
ATOM     30  C   LIG d   1       9.942  -6.445  26.681  0.00  0.00     0.025 C 
BRANCH  30  31
ATOM     31  C   LIG d   1       8.777  -7.355  27.110  0.00  0.00     0.040 C 
BRANCH  31  32
ATOM     32  C   LIG d   1       8.572  -8.533  26.175  0.00  0.00    -0.049 A 
ATOM     33  C   LIG d   1       7.327  -9.152  25.887  0.00  0.00    -0.019 A 
ATOM     34  C   LIG d   1       7.333 -10.182  24.911  0.00  0.00     0.011 A 
ATOM     35  C   LIG d   1       8.502 -10.623  24.287  0.00  0.00     0.001 A 
ATOM     36  C   LIG d   1       9.715 -10.043  24.613  0.00  0.00     0.001 A 
ATOM     37  C   LIG d   1       9.746  -9.010  25.542  0.00  0.00     0.007 A 
BRANCH  33  38
ATOM     38  C   LIG d   1       5.985  -8.787  26.549  0.00  0.00     0.078 C 
ATOM     39  C   LIG d   1       4.786  -9.519  25.924  0.00  0.00     0.051 C 
ATOM     40  C   LIG d   1       6.020  -8.940  28.072  0.00  0.00     0.051 C 
BRANCH  38  41
ATOM     41  O   LIG d   1       5.693  -7.384  26.341  0.00  0.00    -0.386 OA
ATOM     42  H   LIG d   1       5.140  -7.102  27.090  0.00  0.00     0.211 HD
ENDBRANCH  38  41
ENDBRANCH  33  38
ENDBRANCH  31  32
ENDBRANCH  30  31
ENDBRANCH   1  30
TORSDOF 13
