REMARK  6 active torsions:
REMARK  status: ('A' for Active; 'I' for Inactive)
REMARK    1  A    between atoms: S_1  and  C_8 
REMARK    2  A    between atoms: S_1  and  C_10 
REMARK    3  A    between atoms: N_6  and  C_7 
REMARK    4  A    between atoms: C_7  and  C_9 
REMARK    5  A    between atoms: C_7  and  C_8 
REMARK    6  A    between atoms: C_10  and  C_11 
ROOT
ATOM      1  C   UNK d   1       0.972   2.338   1.274  0.00  0.00     0.292 C 
ENDROOT
BRANCH   1   2
ATOM      2  N   UNK d   1       1.170   1.898   2.701  0.00  0.00    -0.065 N 
ATOM      3  H   UNK d   1       0.745   2.493   3.404  0.00  0.00     0.275 HD
ATOM      4  H   UNK d   1       2.187   1.817   2.964  0.00  0.00     0.275 HD
ATOM      5  H   UNK d   1       0.790   0.933   2.729  0.00  0.00     0.275 HD
ENDBRANCH   1   2
BRANCH   1   6
ATOM      6  C   UNK d   1       0.410   1.165   0.421  0.00  0.00     0.205 C 
ATOM      7  O   UNK d   1       0.104   0.169   1.156  0.00  0.00    -0.646 OA
ATOM      8  O   UNK d   1       0.292   1.343  -0.815  0.00  0.00    -0.646 OA
ENDBRANCH   1   6
BRANCH   1   9
ATOM      9  C   UNK d   1       2.275   2.849   0.662  0.00  0.00     0.118 C 
BRANCH   9  10
ATOM     10  S   UNK d   1       2.842   4.424   1.437  0.00  0.00    -0.156 SA
BRANCH  10  11
ATOM     11  C   UNK d   1       4.439   3.881   2.164  0.00  0.00     0.186 C 
BRANCH  11  12
ATOM     12  C   UNK d   1       4.119   3.207   3.502  0.00  0.00     0.182 C 
ATOM     13  O   UNK d   1       3.484   2.106   3.420  0.00  0.00    -0.647 OA
ATOM     14  O   UNK d   1       4.491   3.813   4.541  0.00  0.00    -0.647 OA
ENDBRANCH  11  12
ENDBRANCH  10  11
ENDBRANCH   9  10
ENDBRANCH   1   9
TORSDOF 6
