REMARK  13 active torsions:
REMARK  status: ('A' for Active; 'I' for Inactive)
REMARK    1  A    between atoms: S_2  and  C_10 
REMARK    2  A    between atoms: S_2  and  C_13 
REMARK    3  A    between atoms: O_5  and  C_23 
REMARK    4  A    between atoms: C_7  and  C_10 
REMARK    5  A    between atoms: C_7  and  C_11 
REMARK    6  A    between atoms: C_11  and  C_12 
REMARK    7  A    between atoms: C_13  and  C_15 
REMARK    8  A    between atoms: C_13  and  C_14 
REMARK    9  A    between atoms: C_14  and  C_16 
REMARK   10  A    between atoms: C_16  and  C_19 
REMARK   11  A    between atoms: C_20  and  C_23 
REMARK   12  A    between atoms: C_21  and  C_28 
REMARK   13  A    between atoms: C_32  and  C_33 
ROOT
ATOM      1  C   LIG d   1       7.520  -9.007   0.444  0.00  0.00     0.080 C 
ENDROOT
BRANCH   1   2
ATOM      2  S   LIG d   1       8.407 -10.523   0.991  0.00  0.00    -0.159 SA
BRANCH   2   3
ATOM      3  C   LIG d   1       8.538 -10.145   2.770  0.00  0.00     0.084 C 
BRANCH   3   4
ATOM      4  C   LIG d   1       9.509 -11.102   3.433  0.00  0.00    -0.022 A 
ATOM      5  C   LIG d   1      10.474 -10.527   4.456  0.00  0.00     0.011 A 
ATOM      6  C   LIG d   1      10.992 -10.963   3.120  0.00  0.00     0.011 A 
BRANCH   4   7
ATOM      7  C   LIG d   1       8.961 -12.498   3.724  0.00  0.00     0.123 C 
BRANCH   7   8
ATOM      8  C   LIG d   1       7.845 -12.509   4.781  0.00  0.00     0.173 C 
ATOM      9  O   LIG d   1       6.672 -12.346   4.334  0.00  0.00    -0.648 OA
ATOM     10  O   LIG d   1       8.230 -12.685   5.971  0.00  0.00    -0.648 OA
ENDBRANCH   7   8
ENDBRANCH   4   7
ENDBRANCH   3   4
ENDBRANCH   2   3
ENDBRANCH   1   2
BRANCH   1  11
ATOM     11  C   LIG d   1       8.438  -7.791   0.421  0.00  0.00    -0.043 A 
ATOM     12  C   LIG d   1       9.712  -7.839  -0.173  0.00  0.00     0.019 A 
ATOM     13  C   LIG d   1      10.566  -6.727  -0.170  0.00  0.00    -0.036 A 
ATOM     14  C   LIG d   1      10.122  -5.537   0.413  0.00  0.00     0.011 A 
ATOM     15  C   LIG d   1       8.850  -5.464   0.984  0.00  0.00     0.001 A 
ATOM     16  C   LIG d   1       8.017  -6.584   0.995  0.00  0.00     0.008 A 
BRANCH  13  17
ATOM     17  C   LIG d   1      11.934  -6.903  -0.678  0.00  0.00     0.014 C 
ATOM     18  C   LIG d   1      12.648  -5.963  -1.319  0.00  0.00     0.032 C 
BRANCH  18  19
ATOM     19  C   LIG d   1      14.032  -6.135  -1.780  0.00  0.00     0.057 A 
ATOM     20  N   LIG d   1      14.729  -4.979  -1.899  0.00  0.00    -0.248 NA
ATOM     21  C   LIG d   1      16.011  -5.035  -2.297  0.00  0.00     0.069 A 
ATOM     22  C   LIG d   1      16.653  -6.251  -2.614  0.00  0.00    -0.007 A 
ATOM     23  C   LIG d   1      16.740  -3.860  -2.399  0.00  0.00     0.056 A 
ATOM     24  C   LIG d   1      15.907  -7.428  -2.514  0.00  0.00     0.016 A 
ATOM     25  C   LIG d   1      17.998  -6.264  -3.018  0.00  0.00     0.015 A 
ATOM     26  C   LIG d   1      14.581  -7.370  -2.098  0.00  0.00     0.032 A 
ATOM     27  C   LIG d   1      18.711  -5.071  -3.110  0.00  0.00     0.025 A 
ATOM     28  C   LIG d   1      18.076  -3.873  -2.800  0.00  0.00     0.036 A 
ATOM     29 CL   LIG d   1      18.949  -2.394  -2.914  0.00  0.00    -0.084 Cl
ENDBRANCH  18  19
ENDBRANCH  13  17
ENDBRANCH   1  11
BRANCH   1  30
ATOM     30  C   LIG d   1       6.882  -9.279  -0.934  0.00  0.00     0.025 C 
BRANCH  30  31
ATOM     31  C   LIG d   1       5.863  -8.191  -1.320  0.00  0.00     0.040 C 
BRANCH  31  32
ATOM     32  C   LIG d   1       5.181  -8.465  -2.648  0.00  0.00    -0.049 A 
ATOM     33  C   LIG d   1       5.396  -7.743  -3.851  0.00  0.00    -0.019 A 
ATOM     34  C   LIG d   1       4.730  -8.216  -5.011  0.00  0.00     0.011 A 
ATOM     35  C   LIG d   1       3.856  -9.305  -4.988  0.00  0.00     0.001 A 
ATOM     36  C   LIG d   1       3.619  -9.970  -3.798  0.00  0.00     0.001 A 
ATOM     37  C   LIG d   1       4.277  -9.556  -2.646  0.00  0.00     0.007 A 
BRANCH  33  38
ATOM     38  C   LIG d   1       6.293  -6.498  -3.986  0.00  0.00     0.078 C 
ATOM     39  C   LIG d   1       5.807  -5.310  -3.139  0.00  0.00     0.051 C 
ATOM     40  C   LIG d   1       7.772  -6.810  -3.740  0.00  0.00     0.051 C 
BRANCH  38  41
ATOM     41  O   LIG d   1       6.257  -6.004  -5.346  0.00  0.00    -0.386 OA
ATOM     42  H   LIG d   1       5.373  -5.620  -5.479  0.00  0.00     0.211 HD
ENDBRANCH  38  41
ENDBRANCH  33  38
ENDBRANCH  31  32
ENDBRANCH  30  31
ENDBRANCH   1  30
TORSDOF 13
