REMARK  1 active torsions:
REMARK  status: ('A' for Active; 'I' for Inactive)
REMARK    1  A    between atoms: C_3  and  C_7 
ROOT
ATOM      1  N   LIG d   1      -0.894  -0.929  -0.160  0.00  0.00    -0.067 N 
ATOM      2  C   LIG d   1       0.547  -1.161   0.271  0.00  0.00     0.222 C 
ATOM      3  C   LIG d   1       1.214   0.144  -0.173  0.00  0.00     0.040 C 
ATOM      4  C   LIG d   1       0.138   1.226  -0.119  0.00  0.00     0.030 C 
ATOM      5  C   LIG d   1      -1.188   0.520   0.110  0.00  0.00     0.235 C 
ATOM      6  C   LIG d   1      -1.922  -1.872   0.380  0.00  0.00     0.270 C 
ATOM      7  H   LIG d   1      -0.905  -1.047  -1.181  0.00  0.00     0.280 HD
ENDROOT
BRANCH   2   8
ATOM      8  C   LIG d   1       0.734  -1.539   1.719  0.00  0.00    -0.010 A 
ATOM      9  C   LIG d   1       0.842  -2.890   2.085  0.00  0.00     0.012 A 
ATOM     10  C   LIG d   1       0.985  -3.248   3.424  0.00  0.00     0.020 A 
ATOM     11  C   LIG d   1       1.009  -2.242   4.370  0.00  0.00     0.116 A 
ATOM     12  N   LIG d   1       0.903  -0.933   4.061  0.00  0.00    -0.273 NA
ATOM     13  C   LIG d   1       0.782  -0.611   2.756  0.00  0.00     0.125 A 
ENDBRANCH   2   8
TORSDOF 1
