MODEL 1
REMARK VINA RESULT:      -4.3      0.000      0.000
REMARK  6 active torsions:
REMARK  status: ('A' for Active; 'I' for Inactive)
REMARK    1  A    between atoms: S_1  and  C_8 
REMARK    2  A    between atoms: S_1  and  C_10 
REMARK    3  A    between atoms: N_6  and  C_7 
REMARK    4  A    between atoms: C_7  and  C_9 
REMARK    5  A    between atoms: C_7  and  C_8 
REMARK    6  A    between atoms: C_10  and  C_11 
ROOT
ATOM      1  C   UNK d   1       5.927   1.004  19.601  0.00  0.00     0.292 C 
ENDROOT
BRANCH   1   2
ATOM      2  N   UNK d   1       4.751   1.732  19.005  0.00  0.00    -0.065 N 
ATOM      3  H   UNK d   1       4.028   2.005  19.662  0.00  0.00     0.275 HD
ATOM      4  H   UNK d   1       4.266   1.175  18.254  0.00  0.00     0.275 HD
ATOM      5  H   UNK d   1       5.170   2.552  18.527  0.00  0.00     0.275 HD
ENDBRANCH   1   2
BRANCH   1   6
ATOM      6  C   UNK d   1       6.697   0.226  18.496  0.00  0.00     0.205 C 
ATOM      7  O   UNK d   1       5.892  -0.395  17.726  0.00  0.00    -0.646 OA
ATOM      8  O   UNK d   1       7.947   0.330  18.468  0.00  0.00    -0.646 OA
ENDBRANCH   1   6
BRANCH   1   9
ATOM      9  C   UNK d   1       5.487   0.042  20.703  0.00  0.00     0.118 C 
BRANCH   9  10
ATOM     10  S   UNK d   1       6.912  -0.594  21.688  0.00  0.00    -0.156 SA
BRANCH  10  11
ATOM     11  C   UNK d   1       7.872   0.954  21.921  0.00  0.00     0.186 C 
BRANCH  11  12
ATOM     12  C   UNK d   1       9.340   0.621  21.634  0.00  0.00     0.182 C 
ATOM     13  O   UNK d   1      10.107   1.626  21.479  0.00  0.00    -0.647 OA
ATOM     14  O   UNK d   1       9.636  -0.600  21.557  0.00  0.00    -0.647 OA
ENDBRANCH  11  12
ENDBRANCH  10  11
ENDBRANCH   9  10
ENDBRANCH   1   9
TORSDOF 6
ENDMDL
MODEL 2
REMARK VINA RESULT:      -4.2      6.817      7.284
REMARK  6 active torsions:
REMARK  status: ('A' for Active; 'I' for Inactive)
REMARK    1  A    between atoms: S_1  and  C_8 
REMARK    2  A    between atoms: S_1  and  C_10 
REMARK    3  A    between atoms: N_6  and  C_7 
REMARK    4  A    between atoms: C_7  and  C_9 
REMARK    5  A    between atoms: C_7  and  C_8 
REMARK    6  A    between atoms: C_10  and  C_11 
ROOT
ATOM      1  C   UNK d   1       6.626  -4.467  23.235  0.00  0.00     0.292 C 
ENDROOT
BRANCH   1   2
ATOM      2  N   UNK d   1       5.735  -4.096  24.392  0.00  0.00    -0.065 N 
ATOM      3  H   UNK d   1       4.747  -4.016  24.173  0.00  0.00     0.275 HD
ATOM      4  H   UNK d   1       6.009  -3.183  24.840  0.00  0.00     0.275 HD
ATOM      5  H   UNK d   1       5.916  -4.830  25.103  0.00  0.00     0.275 HD
ENDBRANCH   1   2
BRANCH   1   6
ATOM      6  C   UNK d   1       5.890  -5.448  22.280  0.00  0.00     0.205 C 
ATOM      7  O   UNK d   1       4.632  -5.438  22.491  0.00  0.00    -0.646 OA
ATOM      8  O   UNK d   1       6.577  -6.069  21.433  0.00  0.00    -0.646 OA
ENDBRANCH   1   6
BRANCH   1   9
ATOM      9  C   UNK d   1       7.934  -5.092  23.717  0.00  0.00     0.118 C 
BRANCH   9  10
ATOM     10  S   UNK d   1       8.896  -3.953  24.803  0.00  0.00    -0.156 SA
BRANCH  10  11
ATOM     11  C   UNK d   1       9.163  -5.033  26.265  0.00  0.00     0.186 C 
BRANCH  11  12
ATOM     12  C   UNK d   1       7.891  -4.964  27.114  0.00  0.00     0.182 C 
ATOM     13  O   UNK d   1       7.232  -3.878  27.023  0.00  0.00    -0.647 OA
ATOM     14  O   UNK d   1       7.636  -5.968  27.830  0.00  0.00    -0.647 OA
ENDBRANCH  11  12
ENDBRANCH  10  11
ENDBRANCH   9  10
ENDBRANCH   1   9
TORSDOF 6
ENDMDL
MODEL 3
REMARK VINA RESULT:      -4.1     24.514     25.682
REMARK  6 active torsions:
REMARK  status: ('A' for Active; 'I' for Inactive)
REMARK    1  A    between atoms: S_1  and  C_8 
REMARK    2  A    between atoms: S_1  and  C_10 
REMARK    3  A    between atoms: N_6  and  C_7 
REMARK    4  A    between atoms: C_7  and  C_9 
REMARK    5  A    between atoms: C_7  and  C_8 
REMARK    6  A    between atoms: C_10  and  C_11 
ROOT
ATOM      1  C   UNK d   1      14.634  -0.871  -4.479  0.00  0.00     0.292 C 
ENDROOT
BRANCH   1   2
ATOM      2  N   UNK d   1      13.439  -0.391  -3.698  0.00  0.00    -0.065 N 
ATOM      3  H   UNK d   1      12.609  -0.968  -3.773  0.00  0.00     0.275 HD
ATOM      4  H   UNK d   1      13.142   0.583  -3.968  0.00  0.00     0.275 HD
ATOM      5  H   UNK d   1      13.779  -0.325  -2.720  0.00  0.00     0.275 HD
ENDBRANCH   1   2
BRANCH   1   6
ATOM      6  C   UNK d   1      14.640  -0.238  -5.900  0.00  0.00     0.205 C 
ATOM      7  O   UNK d   1      14.756   1.031  -5.836  0.00  0.00    -0.646 OA
ATOM      8  O   UNK d   1      14.575  -1.010  -6.886  0.00  0.00    -0.646 OA
ENDBRANCH   1   6
BRANCH   1   9
ATOM      9  C   UNK d   1      14.654  -2.394  -4.588  0.00  0.00     0.118 C 
BRANCH   9  10
ATOM     10  S   UNK d   1      16.354  -3.087  -4.404  0.00  0.00    -0.156 SA
BRANCH  10  11
ATOM     11  C   UNK d   1      16.484  -3.167  -2.574  0.00  0.00     0.186 C 
BRANCH  11  12
ATOM     12  C   UNK d   1      16.661  -1.731  -2.071  0.00  0.00     0.182 C 
ATOM     13  O   UNK d   1      17.767  -1.178  -2.378  0.00  0.00    -0.647 OA
ATOM     14  O   UNK d   1      15.716  -1.251  -1.392  0.00  0.00    -0.647 OA
ENDBRANCH  11  12
ENDBRANCH  10  11
ENDBRANCH   9  10
ENDBRANCH   1   9
TORSDOF 6
ENDMDL
MODEL 4
REMARK VINA RESULT:      -4.0      2.440      4.750
REMARK  6 active torsions:
REMARK  status: ('A' for Active; 'I' for Inactive)
REMARK    1  A    between atoms: S_1  and  C_8 
REMARK    2  A    between atoms: S_1  and  C_10 
REMARK    3  A    between atoms: N_6  and  C_7 
REMARK    4  A    between atoms: C_7  and  C_9 
REMARK    5  A    between atoms: C_7  and  C_8 
REMARK    6  A    between atoms: C_10  and  C_11 
ROOT
ATOM      1  C   UNK d   1       8.987  -0.602  22.451  0.00  0.00     0.292 C 
ENDROOT
BRANCH   1   2
ATOM      2  N   UNK d   1       9.573  -0.486  21.068  0.00  0.00    -0.065 N 
ATOM      3  H   UNK d   1      10.396  -1.054  20.894  0.00  0.00     0.275 HD
ATOM      4  H   UNK d   1       9.844   0.502  20.823  0.00  0.00     0.275 HD
ATOM      5  H   UNK d   1       8.790  -0.734  20.434  0.00  0.00     0.275 HD
ENDBRANCH   1   2
BRANCH   1   6
ATOM      6  C   UNK d   1       9.044  -2.078  22.939  0.00  0.00     0.205 C 
ATOM      7  O   UNK d   1      10.023  -2.261  23.735  0.00  0.00    -0.646 OA
ATOM      8  O   UNK d   1       8.145  -2.860  22.547  0.00  0.00    -0.646 OA
ENDBRANCH   1   6
BRANCH   1   9
ATOM      9  C   UNK d   1       7.546  -0.095  22.490  0.00  0.00     0.118 C 
BRANCH   9  10
ATOM     10  S   UNK d   1       7.158   1.020  21.074  0.00  0.00    -0.156 SA
BRANCH  10  11
ATOM     11  C   UNK d   1       6.158  -0.109  20.026  0.00  0.00     0.186 C 
BRANCH  11  12
ATOM     12  C   UNK d   1       6.792  -0.109  18.631  0.00  0.00     0.182 C 
ATOM     13  O   UNK d   1       6.000  -0.385  17.672  0.00  0.00    -0.647 OA
ATOM     14  O   UNK d   1       8.025   0.138  18.573  0.00  0.00    -0.647 OA
ENDBRANCH  11  12
ENDBRANCH  10  11
ENDBRANCH   9  10
ENDBRANCH   1   9
TORSDOF 6
ENDMDL
MODEL 5
REMARK VINA RESULT:      -4.0     24.934     26.149
REMARK  6 active torsions:
REMARK  status: ('A' for Active; 'I' for Inactive)
REMARK    1  A    between atoms: S_1  and  C_8 
REMARK    2  A    between atoms: S_1  and  C_10 
REMARK    3  A    between atoms: N_6  and  C_7 
REMARK    4  A    between atoms: C_7  and  C_9 
REMARK    5  A    between atoms: C_7  and  C_8 
REMARK    6  A    between atoms: C_10  and  C_11 
ROOT
ATOM      1  C   UNK d   1      16.510  -3.188  -3.185  0.00  0.00     0.292 C 
ENDROOT
BRANCH   1   2
ATOM      2  N   UNK d   1      16.430  -4.209  -2.080  0.00  0.00    -0.065 N 
ATOM      3  H   UNK d   1      15.599  -4.161  -1.501  0.00  0.00     0.275 HD
ATOM      4  H   UNK d   1      17.249  -4.156  -1.418  0.00  0.00     0.275 HD
ATOM      5  H   UNK d   1      16.513  -5.122  -2.565  0.00  0.00     0.275 HD
ENDBRANCH   1   2
BRANCH   1   6
ATOM      6  C   UNK d   1      16.478  -1.750  -2.594  0.00  0.00     0.205 C 
ATOM      7  O   UNK d   1      15.295  -1.276  -2.603  0.00  0.00    -0.646 OA
ATOM      8  O   UNK d   1      17.554  -1.269  -2.165  0.00  0.00    -0.646 OA
ENDBRANCH   1   6
BRANCH   1   9
ATOM      9  C   UNK d   1      15.372  -3.364  -4.189  0.00  0.00     0.118 C 
BRANCH   9  10
ATOM     10  S   UNK d   1      15.842  -4.459  -5.597  0.00  0.00    -0.156 SA
BRANCH  10  11
ATOM     11  C   UNK d   1      14.580  -5.782  -5.425  0.00  0.00     0.186 C 
BRANCH  11  12
ATOM     12  C   UNK d   1      15.176  -6.857  -4.510  0.00  0.00     0.182 C 
ATOM     13  O   UNK d   1      14.389  -7.811  -4.205  0.00  0.00    -0.647 OA
ATOM     14  O   UNK d   1      16.364  -6.681  -4.134  0.00  0.00    -0.647 OA
ENDBRANCH  11  12
ENDBRANCH  10  11
ENDBRANCH   9  10
ENDBRANCH   1   9
TORSDOF 6
ENDMDL
MODEL 6
REMARK VINA RESULT:      -4.0      7.378      8.707
REMARK  6 active torsions:
REMARK  status: ('A' for Active; 'I' for Inactive)
REMARK    1  A    between atoms: S_1  and  C_8 
REMARK    2  A    between atoms: S_1  and  C_10 
REMARK    3  A    between atoms: N_6  and  C_7 
REMARK    4  A    between atoms: C_7  and  C_9 
REMARK    5  A    between atoms: C_7  and  C_8 
REMARK    6  A    between atoms: C_10  and  C_11 
ROOT
ATOM      1  C   UNK d   1       8.001  -4.707  26.918  0.00  0.00     0.292 C 
ENDROOT
BRANCH   1   2
ATOM      2  N   UNK d   1       9.187  -5.507  26.446  0.00  0.00    -0.065 N 
ATOM      3  H   UNK d   1       9.128  -5.854  25.494  0.00  0.00     0.275 HD
ATOM      4  H   UNK d   1       9.377  -6.348  27.051  0.00  0.00     0.275 HD
ATOM      5  H   UNK d   1       9.996  -4.871  26.578  0.00  0.00     0.275 HD
ENDBRANCH   1   2
BRANCH   1   6
ATOM      6  C   UNK d   1       6.912  -5.651  27.503  0.00  0.00     0.205 C 
ATOM      7  O   UNK d   1       6.758  -5.455  28.753  0.00  0.00    -0.646 OA
ATOM      8  O   UNK d   1       6.317  -6.421  26.711  0.00  0.00    -0.646 OA
ENDBRANCH   1   6
BRANCH   1   9
ATOM      9  C   UNK d   1       7.409  -3.867  25.788  0.00  0.00     0.118 C 
BRANCH   9  10
ATOM     10  S   UNK d   1       8.256  -4.165  24.176  0.00  0.00    -0.156 SA
BRANCH  10  11
ATOM     11  C   UNK d   1       7.094  -5.361  23.406  0.00  0.00     0.186 C 
BRANCH  11  12
ATOM     12  C   UNK d   1       6.121  -4.551  22.543  0.00  0.00     0.182 C 
ATOM     13  O   UNK d   1       4.961  -5.059  22.407  0.00  0.00    -0.647 OA
ATOM     14  O   UNK d   1       6.566  -3.486  22.041  0.00  0.00    -0.647 OA
ENDBRANCH  11  12
ENDBRANCH  10  11
ENDBRANCH   9  10
ENDBRANCH   1   9
TORSDOF 6
ENDMDL
MODEL 7
REMARK VINA RESULT:      -4.0     26.235     26.799
REMARK  6 active torsions:
REMARK  status: ('A' for Active; 'I' for Inactive)
REMARK    1  A    between atoms: S_1  and  C_8 
REMARK    2  A    between atoms: S_1  and  C_10 
REMARK    3  A    between atoms: N_6  and  C_7 
REMARK    4  A    between atoms: C_7  and  C_9 
REMARK    5  A    between atoms: C_7  and  C_8 
REMARK    6  A    between atoms: C_10  and  C_11 
ROOT
ATOM      1  C   UNK d   1      14.630  -1.092  -4.539  0.00  0.00     0.292 C 
ENDROOT
BRANCH   1   2
ATOM      2  N   UNK d   1      13.528  -0.460  -3.729  0.00  0.00    -0.065 N 
ATOM      3  H   UNK d   1      13.779  -0.197  -2.782  0.00  0.00     0.275 HD
ATOM      4  H   UNK d   1      12.679  -1.078  -3.645  0.00  0.00     0.275 HD
ATOM      5  H   UNK d   1      13.231   0.359  -4.293  0.00  0.00     0.275 HD
ENDBRANCH   1   2
BRANCH   1   6
ATOM      6  C   UNK d   1      14.829  -0.321  -5.875  0.00  0.00     0.205 C 
ATOM      7  O   UNK d   1      14.854  -1.121  -6.867  0.00  0.00    -0.646 OA
ATOM      8  O   UNK d   1      14.895   0.931  -5.824  0.00  0.00    -0.646 OA
ENDBRANCH   1   6
BRANCH   1   9
ATOM      9  C   UNK d   1      14.336  -2.564  -4.827  0.00  0.00     0.118 C 
BRANCH   9  10
ATOM     10  S   UNK d   1      15.678  -3.676  -4.225  0.00  0.00    -0.156 SA
BRANCH  10  11
ATOM     11  C   UNK d   1      15.625  -4.987  -5.511  0.00  0.00     0.186 C 
BRANCH  11  12
ATOM     12  C   UNK d   1      15.387  -6.317  -4.789  0.00  0.00     0.182 C 
ATOM     13  O   UNK d   1      16.424  -6.855  -4.281  0.00  0.00    -0.647 OA
ATOM     14  O   UNK d   1      14.206  -6.754  -4.790  0.00  0.00    -0.647 OA
ENDBRANCH  11  12
ENDBRANCH  10  11
ENDBRANCH   9  10
ENDBRANCH   1   9
TORSDOF 6
ENDMDL
MODEL 8
REMARK VINA RESULT:      -4.0      6.166      7.482
REMARK  6 active torsions:
REMARK  status: ('A' for Active; 'I' for Inactive)
REMARK    1  A    between atoms: S_1  and  C_8 
REMARK    2  A    between atoms: S_1  and  C_10 
REMARK    3  A    between atoms: N_6  and  C_7 
REMARK    4  A    between atoms: C_7  and  C_9 
REMARK    5  A    between atoms: C_7  and  C_8 
REMARK    6  A    between atoms: C_10  and  C_11 
ROOT
ATOM      1  C   UNK d   1       9.250  -4.560  25.459  0.00  0.00     0.292 C 
ENDROOT
BRANCH   1   2
ATOM      2  N   UNK d   1      10.120  -5.790  25.431  0.00  0.00    -0.065 N 
ATOM      3  H   UNK d   1      10.988  -5.698  24.915  0.00  0.00     0.275 HD
ATOM      4  H   UNK d   1       9.627  -6.627  25.024  0.00  0.00     0.275 HD
ATOM      5  H   UNK d   1      10.284  -6.013  26.431  0.00  0.00     0.275 HD
ENDBRANCH   1   2
BRANCH   1   6
ATOM      6  C   UNK d   1       8.320  -4.586  26.705  0.00  0.00     0.205 C 
ATOM      7  O   UNK d   1       8.140  -5.779  27.119  0.00  0.00    -0.646 OA
ATOM      8  O   UNK d   1       7.913  -3.488  27.156  0.00  0.00    -0.646 OA
ENDBRANCH   1   6
BRANCH   1   9
ATOM      9  C   UNK d   1       8.412  -4.441  24.187  0.00  0.00     0.118 C 
BRANCH   9  10
ATOM     10  S   UNK d   1       8.305  -2.702  23.580  0.00  0.00    -0.156 SA
BRANCH  10  11
ATOM     11  C   UNK d   1       9.932  -2.055  24.135  0.00  0.00     0.186 C 
BRANCH  11  12
ATOM     12  C   UNK d   1       9.688  -0.659  24.717  0.00  0.00     0.182 C 
ATOM     13  O   UNK d   1       9.739   0.298  23.879  0.00  0.00    -0.647 OA
ATOM     14  O   UNK d   1       9.485  -0.594  25.958  0.00  0.00    -0.647 OA
ENDBRANCH  11  12
ENDBRANCH  10  11
ENDBRANCH   9  10
ENDBRANCH   1   9
TORSDOF 6
ENDMDL
MODEL 9
REMARK VINA RESULT:      -3.9     40.871     41.981
REMARK  6 active torsions:
REMARK  status: ('A' for Active; 'I' for Inactive)
REMARK    1  A    between atoms: S_1  and  C_8 
REMARK    2  A    between atoms: S_1  and  C_10 
REMARK    3  A    between atoms: N_6  and  C_7 
REMARK    4  A    between atoms: C_7  and  C_9 
REMARK    5  A    between atoms: C_7  and  C_8 
REMARK    6  A    between atoms: C_10  and  C_11 
ROOT
ATOM      1  C   UNK d   1       7.703  26.317 -11.380  0.00  0.00     0.292 C 
ENDROOT
BRANCH   1   2
ATOM      2  N   UNK d   1       6.676  25.223 -11.510  0.00  0.00    -0.065 N 
ATOM      3  H   UNK d   1       5.795  25.393 -11.038  0.00  0.00     0.275 HD
ATOM      4  H   UNK d   1       7.024  24.295 -11.152  0.00  0.00     0.275 HD
ATOM      5  H   UNK d   1       6.552  25.106 -12.533  0.00  0.00     0.275 HD
ENDBRANCH   1   2
BRANCH   1   6
ATOM      6  C   UNK d   1       7.377  27.220 -10.156  0.00  0.00     0.205 C 
ATOM      7  O   UNK d   1       6.873  26.538  -9.204  0.00  0.00    -0.646 OA
ATOM      8  O   UNK d   1       7.670  28.438 -10.232  0.00  0.00    -0.646 OA
ENDBRANCH   1   6
BRANCH   1   9
ATOM      9  C   UNK d   1       7.778  27.166 -12.648  0.00  0.00     0.118 C 
BRANCH   9  10
ATOM     10  S   UNK d   1       6.512  26.673 -13.895  0.00  0.00    -0.156 SA
BRANCH  10  11
ATOM     11  C   UNK d   1       5.433  28.160 -13.879  0.00  0.00     0.186 C 
BRANCH  11  12
ATOM     12  C   UNK d   1       4.756  28.210 -12.506  0.00  0.00     0.182 C 
ATOM     13  O   UNK d   1       4.778  29.344 -11.927  0.00  0.00    -0.647 OA
ATOM     14  O   UNK d   1       4.269  27.130 -12.078  0.00  0.00    -0.647 OA
ENDBRANCH  11  12
ENDBRANCH  10  11
ENDBRANCH   9  10
ENDBRANCH   1   9
TORSDOF 6
ENDMDL
