MODEL 1
REMARK minimizedAffinity -4.33585691REMARK CNNscore 0.764460444REMARK CNNaffinity 3.72183466REMARK  6 active torsions:
REMARK  status: ('A' for Active; 'I' for Inactive)
REMARK    1  A    between atoms: S_1  and  C_8 
REMARK    2  A    between atoms: S_1  and  C_10 
REMARK    3  A    between atoms: N_6  and  C_7 
REMARK    4  A    between atoms: C_7  and  C_9 
REMARK    5  A    between atoms: C_7  and  C_8 
REMARK    6  A    between atoms: C_10  and  C_11 
ROOT
ATOM      1  C   UNK d   1       9.348  -4.532  25.604  0.00  0.00     0.292 C 
ENDROOT
BRANCH   1   2
ATOM      2  N   UNK d   1      10.064  -5.846  25.434  0.00  0.00    -0.065 N 
ATOM      3  H   UNK d   1      11.076  -5.792  25.409  0.00  0.00     0.275 HD
ATOM      4  H   UNK d   1       9.778  -6.355  24.557  0.00  0.00     0.275 HD
ATOM      5  H   UNK d   1       9.726  -6.428  26.224  0.00  0.00     0.275 HD
ENDBRANCH   1   2
BRANCH   1   6
ATOM      6  C   UNK d   1       8.336  -4.617  26.782  0.00  0.00     0.205 C 
ATOM      7  O   UNK d   1       8.173  -5.824  27.160  0.00  0.00    -0.646 OA
ATOM      8  O   UNK d   1       7.858  -3.544  27.223  0.00  0.00    -0.646 OA
ENDBRANCH   1   6
BRANCH   1   9
ATOM      9  C   UNK d   1       8.622  -4.122  24.323  0.00  0.00     0.118 C 
BRANCH   9  10
ATOM     10  S   UNK d   1       7.490  -5.442  23.708  0.00  0.00    -0.156 SA
BRANCH  10  11
ATOM     11  C   UNK d   1       7.299  -4.926  21.955  0.00  0.00     0.186 C 
BRANCH  11  12
ATOM     12  C   UNK d   1       5.887  -4.351  21.806  0.00  0.00     0.182 C 
ATOM     13  O   UNK d   1       5.810  -3.252  21.166  0.00  0.00    -0.647 OA
ATOM     14  O   UNK d   1       4.954  -5.003  22.344  0.00  0.00    -0.647 OA
ENDBRANCH  11  12
ENDBRANCH  10  11
ENDBRANCH   9  10
ENDBRANCH   1   9
TORSDOF 6
ENDMDL
MODEL 2
REMARK minimizedAffinity -2.70390844REMARK CNNscore 0.610102355REMARK CNNaffinity 2.81774259REMARK  6 active torsions:
REMARK  status: ('A' for Active; 'I' for Inactive)
REMARK    1  A    between atoms: S_1  and  C_8 
REMARK    2  A    between atoms: S_1  and  C_10 
REMARK    3  A    between atoms: N_6  and  C_7 
REMARK    4  A    between atoms: C_7  and  C_9 
REMARK    5  A    between atoms: C_7  and  C_8 
REMARK    6  A    between atoms: C_10  and  C_11 
ROOT
ATOM      1  C   UNK d   1      20.514 -21.156  14.998  0.00  0.00     0.292 C 
ENDROOT
BRANCH   1   2
ATOM      2  N   UNK d   1      21.382 -22.338  14.650  0.00  0.00    -0.065 N 
ATOM      3  H   UNK d   1      20.895 -23.136  14.256  0.00  0.00     0.275 HD
ATOM      4  H   UNK d   1      21.920 -22.704  15.479  0.00  0.00     0.275 HD
ATOM      5  H   UNK d   1      22.091 -21.954  13.996  0.00  0.00     0.275 HD
ENDBRANCH   1   2
BRANCH   1   6
ATOM      6  C   UNK d   1      21.085 -19.860  14.355  0.00  0.00     0.205 C 
ATOM      7  O   UNK d   1      22.082 -19.420  15.017  0.00  0.00    -0.646 OA
ATOM      8  O   UNK d   1      20.553 -19.447  13.296  0.00  0.00    -0.646 OA
ENDBRANCH   1   6
BRANCH   1   9
ATOM      9  C   UNK d   1      20.395 -20.978  16.510  0.00  0.00     0.118 C 
BRANCH   9  10
ATOM     10  S   UNK d   1      21.079 -22.416  17.441  0.00  0.00    -0.156 SA
BRANCH  10  11
ATOM     11  C   UNK d   1      22.491 -21.614  18.301  0.00  0.00     0.186 C 
BRANCH  11  12
ATOM     12  C   UNK d   1      23.654 -21.563  17.306  0.00  0.00     0.182 C 
ATOM     13  O   UNK d   1      23.736 -22.555  16.511  0.00  0.00    -0.647 OA
ATOM     14  O   UNK d   1      24.421 -20.567  17.386  0.00  0.00    -0.647 OA
ENDBRANCH  11  12
ENDBRANCH  10  11
ENDBRANCH   9  10
ENDBRANCH   1   9
TORSDOF 6
ENDMDL
MODEL 3
REMARK minimizedAffinity -3.34294963REMARK CNNscore 0.597864807REMARK CNNaffinity 3.18243265REMARK  6 active torsions:
REMARK  status: ('A' for Active; 'I' for Inactive)
REMARK    1  A    between atoms: S_1  and  C_8 
REMARK    2  A    between atoms: S_1  and  C_10 
REMARK    3  A    between atoms: N_6  and  C_7 
REMARK    4  A    between atoms: C_7  and  C_9 
REMARK    5  A    between atoms: C_7  and  C_8 
REMARK    6  A    between atoms: C_10  and  C_11 
ROOT
ATOM      1  C   UNK d   1      22.221   7.698  -1.162  0.00  0.00     0.292 C 
ENDROOT
BRANCH   1   2
ATOM      2  N   UNK d   1      20.918   7.277  -1.790  0.00  0.00    -0.065 N 
ATOM      3  H   UNK d   1      20.794   7.547  -2.760  0.00  0.00     0.275 HD
ATOM      4  H   UNK d   1      20.079   7.649  -1.274  0.00  0.00     0.275 HD
ATOM      5  H   UNK d   1      20.894   6.246  -1.669  0.00  0.00     0.275 HD
ENDBRANCH   1   2
BRANCH   1   6
ATOM      6  C   UNK d   1      22.921   6.476  -0.501  0.00  0.00     0.205 C 
ATOM      7  O   UNK d   1      23.156   5.562  -1.359  0.00  0.00    -0.646 OA
ATOM      8  O   UNK d   1      23.193   6.547   0.722  0.00  0.00    -0.646 OA
ENDBRANCH   1   6
BRANCH   1   9
ATOM      9  C   UNK d   1      22.010   8.800  -0.125  0.00  0.00     0.118 C 
BRANCH   9  10
ATOM     10  S   UNK d   1      21.845  10.466  -0.899  0.00  0.00    -0.156 SA
BRANCH  10  11
ATOM     11  C   UNK d   1      20.022  10.679  -0.846  0.00  0.00     0.186 C 
BRANCH  11  12
ATOM     12  C   UNK d   1      19.530  10.717  -2.296  0.00  0.00     0.182 C 
ATOM     13  O   UNK d   1      19.806   9.687  -2.993  0.00  0.00    -0.647 OA
ATOM     14  O   UNK d   1      18.927  11.761  -2.659  0.00  0.00    -0.647 OA
ENDBRANCH  11  12
ENDBRANCH  10  11
ENDBRANCH   9  10
ENDBRANCH   1   9
TORSDOF 6
ENDMDL
MODEL 4
REMARK minimizedAffinity -3.00803638REMARK CNNscore 0.588187099REMARK CNNaffinity 3.03658986REMARK  6 active torsions:
REMARK  status: ('A' for Active; 'I' for Inactive)
REMARK    1  A    between atoms: S_1  and  C_8 
REMARK    2  A    between atoms: S_1  and  C_10 
REMARK    3  A    between atoms: N_6  and  C_7 
REMARK    4  A    between atoms: C_7  and  C_9 
REMARK    5  A    between atoms: C_7  and  C_8 
REMARK    6  A    between atoms: C_10  and  C_11 
ROOT
ATOM      1  C   UNK d   1       8.065  23.860  -0.590  0.00  0.00     0.292 C 
ENDROOT
BRANCH   1   2
ATOM      2  N   UNK d   1       8.603  24.754  -1.677  0.00  0.00    -0.065 N 
ATOM      3  H   UNK d   1       7.932  25.394  -2.087  0.00  0.00     0.275 HD
ATOM      4  H   UNK d   1       9.018  24.212  -2.480  0.00  0.00     0.275 HD
ATOM      5  H   UNK d   1       9.394  25.255  -1.231  0.00  0.00     0.275 HD
ENDBRANCH   1   2
BRANCH   1   6
ATOM      6  C   UNK d   1       8.959  23.956   0.679  0.00  0.00     0.205 C 
ATOM      7  O   UNK d   1       9.687  25.002   0.649  0.00  0.00    -0.646 OA
ATOM      8  O   UNK d   1       8.834  23.065   1.553  0.00  0.00    -0.646 OA
ENDBRANCH   1   6
BRANCH   1   9
ATOM      9  C   UNK d   1       7.976  22.407  -1.055  0.00  0.00     0.118 C 
BRANCH   9  10
ATOM     10  S   UNK d   1       6.232  21.823  -1.199  0.00  0.00    -0.156 SA
BRANCH  10  11
ATOM     11  C   UNK d   1       5.483  23.232  -2.109  0.00  0.00     0.186 C 
BRANCH  11  12
ATOM     12  C   UNK d   1       4.169  23.578  -1.401  0.00  0.00     0.182 C 
ATOM     13  O   UNK d   1       3.450  24.453  -1.984  0.00  0.00    -0.647 OA
ATOM     14  O   UNK d   1       3.943  22.987  -0.313  0.00  0.00    -0.647 OA
ENDBRANCH  11  12
ENDBRANCH  10  11
ENDBRANCH   9  10
ENDBRANCH   1   9
TORSDOF 6
ENDMDL
MODEL 5
REMARK minimizedAffinity -3.8288455REMARK CNNscore 0.586606264REMARK CNNaffinity 3.65024877REMARK  6 active torsions:
REMARK  status: ('A' for Active; 'I' for Inactive)
REMARK    1  A    between atoms: S_1  and  C_8 
REMARK    2  A    between atoms: S_1  and  C_10 
REMARK    3  A    between atoms: N_6  and  C_7 
REMARK    4  A    between atoms: C_7  and  C_9 
REMARK    5  A    between atoms: C_7  and  C_8 
REMARK    6  A    between atoms: C_10  and  C_11 
ROOT
ATOM      1  C   UNK d   1       6.983   0.121  20.745  0.00  0.00     0.292 C 
ENDROOT
BRANCH   1   2
ATOM      2  N   UNK d   1       5.749  -0.539  21.303  0.00  0.00    -0.065 N 
ATOM      3  H   UNK d   1       5.236   0.004  21.989  0.00  0.00     0.275 HD
ATOM      4  H   UNK d   1       5.954  -1.466  21.759  0.00  0.00     0.275 HD
ATOM      5  H   UNK d   1       5.171  -0.753  20.468  0.00  0.00     0.275 HD
ENDBRANCH   1   2
BRANCH   1   6
ATOM      6  C   UNK d   1       6.948   0.104  19.190  0.00  0.00     0.205 C 
ATOM      7  O   UNK d   1       5.748   0.110  18.759  0.00  0.00    -0.646 OA
ATOM      8  O   UNK d   1       8.043   0.127  18.579  0.00  0.00    -0.646 OA
ENDBRANCH   1   6
BRANCH   1   9
ATOM      9  C   UNK d   1       8.255  -0.563  21.245  0.00  0.00     0.118 C 
BRANCH   9  10
ATOM     10  S   UNK d   1       8.437  -0.450  23.077  0.00  0.00    -0.156 SA
BRANCH  10  11
ATOM     11  C   UNK d   1      10.263  -0.561  23.238  0.00  0.00     0.186 C 
BRANCH  11  12
ATOM     12  C   UNK d   1      10.641   0.109  24.562  0.00  0.00     0.182 C 
ATOM     13  O   UNK d   1      11.696   0.822  24.531  0.00  0.00    -0.647 OA
ATOM     14  O   UNK d   1       9.892  -0.126  25.546  0.00  0.00    -0.647 OA
ENDBRANCH  11  12
ENDBRANCH  10  11
ENDBRANCH   9  10
ENDBRANCH   1   9
TORSDOF 6
ENDMDL
MODEL 6
REMARK minimizedAffinity -2.78271961REMARK CNNscore 0.582477748REMARK CNNaffinity 2.73313737REMARK  6 active torsions:
REMARK  status: ('A' for Active; 'I' for Inactive)
REMARK    1  A    between atoms: S_1  and  C_8 
REMARK    2  A    between atoms: S_1  and  C_10 
REMARK    3  A    between atoms: N_6  and  C_7 
REMARK    4  A    between atoms: C_7  and  C_9 
REMARK    5  A    between atoms: C_7  and  C_8 
REMARK    6  A    between atoms: C_10  and  C_11 
ROOT
ATOM      1  C   UNK d   1      -4.217  11.466 -10.475  0.00  0.00     0.292 C 
ENDROOT
BRANCH   1   2
ATOM      2  N   UNK d   1      -3.693  10.310 -11.286  0.00  0.00    -0.065 N 
ATOM      3  H   UNK d   1      -4.363   9.878 -11.914  0.00  0.00     0.275 HD
ATOM      4  H   UNK d   1      -3.312   9.532 -10.687  0.00  0.00     0.275 HD
ATOM      5  H   UNK d   1      -2.880  10.701 -11.798  0.00  0.00     0.275 HD
ENDBRANCH   1   2
BRANCH   1   6
ATOM      6  C   UNK d   1      -3.285  12.701 -10.633  0.00  0.00     0.205 C 
ATOM      7  O   UNK d   1      -2.515  12.569 -11.640  0.00  0.00    -0.646 OA
ATOM      8  O   UNK d   1      -3.423  13.647  -9.820  0.00  0.00    -0.646 OA
ENDBRANCH   1   6
BRANCH   1   9
ATOM      9  C   UNK d   1      -4.346  11.097  -8.998  0.00  0.00     0.118 C 
BRANCH   9  10
ATOM     10  S   UNK d   1      -2.871  10.183  -8.373  0.00  0.00    -0.156 SA
BRANCH  10  11
ATOM     11  C   UNK d   1      -3.685   8.748  -7.567  0.00  0.00     0.186 C 
BRANCH  11  12
ATOM     12  C   UNK d   1      -3.972   7.718  -8.664  0.00  0.00     0.182 C 
ATOM     13  O   UNK d   1      -3.221   7.792  -9.691  0.00  0.00    -0.647 OA
ATOM     14  O   UNK d   1      -4.926   6.923  -8.456  0.00  0.00    -0.647 OA
ENDBRANCH  11  12
ENDBRANCH  10  11
ENDBRANCH   9  10
ENDBRANCH   1   9
TORSDOF 6
ENDMDL
MODEL 7
REMARK minimizedAffinity -3.54457045REMARK CNNscore 0.572402894REMARK CNNaffinity 2.84842563REMARK  6 active torsions:
REMARK  status: ('A' for Active; 'I' for Inactive)
REMARK    1  A    between atoms: S_1  and  C_8 
REMARK    2  A    between atoms: S_1  and  C_10 
REMARK    3  A    between atoms: N_6  and  C_7 
REMARK    4  A    between atoms: C_7  and  C_9 
REMARK    5  A    between atoms: C_7  and  C_8 
REMARK    6  A    between atoms: C_10  and  C_11 
ROOT
ATOM      1  C   UNK d   1       2.303  24.166  -1.089  0.00  0.00     0.292 C 
ENDROOT
BRANCH   1   2
ATOM      2  N   UNK d   1       1.482  23.137  -0.356  0.00  0.00    -0.065 N 
ATOM      3  H   UNK d   1       1.493  23.210   0.655  0.00  0.00     0.275 HD
ATOM      4  H   UNK d   1       1.773  22.150  -0.581  0.00  0.00     0.275 HD
ATOM      5  H   UNK d   1       0.525  23.248  -0.742  0.00  0.00     0.275 HD
ENDBRANCH   1   2
BRANCH   1   6
ATOM      6  C   UNK d   1       1.441  24.869  -2.177  0.00  0.00     0.205 C 
ATOM      7  O   UNK d   1       0.535  24.088  -2.619  0.00  0.00    -0.646 OA
ATOM      8  O   UNK d   1       1.699  26.067  -2.445  0.00  0.00    -0.646 OA
ENDBRANCH   1   6
BRANCH   1   9
ATOM      9  C   UNK d   1       3.540  23.539  -1.730  0.00  0.00     0.118 C 
BRANCH   9  10
ATOM     10  S   UNK d   1       5.026  23.654  -0.644  0.00  0.00    -0.156 SA
BRANCH  10  11
ATOM     11  C   UNK d   1       5.317  21.875  -0.289  0.00  0.00     0.186 C 
BRANCH  11  12
ATOM     12  C   UNK d   1       6.482  21.423  -1.175  0.00  0.00     0.182 C 
ATOM     13  O   UNK d   1       6.766  22.203  -2.142  0.00  0.00    -0.647 OA
ATOM     14  O   UNK d   1       7.023  20.326  -0.878  0.00  0.00    -0.647 OA
ENDBRANCH  11  12
ENDBRANCH  10  11
ENDBRANCH   9  10
ENDBRANCH   1   9
TORSDOF 6
ENDMDL
MODEL 8
REMARK minimizedAffinity -3.43980026REMARK CNNscore 0.562411964REMARK CNNaffinity 3.01281691REMARK  6 active torsions:
REMARK  status: ('A' for Active; 'I' for Inactive)
REMARK    1  A    between atoms: S_1  and  C_8 
REMARK    2  A    between atoms: S_1  and  C_10 
REMARK    3  A    between atoms: N_6  and  C_7 
REMARK    4  A    between atoms: C_7  and  C_9 
REMARK    5  A    between atoms: C_7  and  C_8 
REMARK    6  A    between atoms: C_10  and  C_11 
ROOT
ATOM      1  C   UNK d   1      20.802 -20.752  15.513  0.00  0.00     0.292 C 
ENDROOT
BRANCH   1   2
ATOM      2  N   UNK d   1      20.167 -20.495  16.854  0.00  0.00    -0.065 N 
ATOM      3  H   UNK d   1      20.722 -19.946  17.502  0.00  0.00     0.275 HD
ATOM      4  H   UNK d   1      19.919 -21.383  17.364  0.00  0.00     0.275 HD
ATOM      5  H   UNK d   1      19.265 -20.034  16.629  0.00  0.00     0.275 HD
ENDBRANCH   1   2
BRANCH   1   6
ATOM      6  C   UNK d   1      19.829 -20.348  14.369  0.00  0.00     0.205 C 
ATOM      7  O   UNK d   1      20.462 -20.132  13.283  0.00  0.00    -0.646 OA
ATOM      8  O   UNK d   1      18.601 -20.323  14.625  0.00  0.00    -0.646 OA
ENDBRANCH   1   6
BRANCH   1   9
ATOM      9  C   UNK d   1      21.206 -22.217  15.359  0.00  0.00     0.118 C 
BRANCH   9  10
ATOM     10  S   UNK d   1      22.718 -22.632  16.331  0.00  0.00    -0.156 SA
BRANCH  10  11
ATOM     11  C   UNK d   1      22.078 -24.005  17.371  0.00  0.00     0.186 C 
BRANCH  11  12
ATOM     12  C   UNK d   1      21.876 -23.445  18.782  0.00  0.00     0.182 C 
ATOM     13  O   UNK d   1      22.040 -24.281  19.729  0.00  0.00    -0.647 OA
ATOM     14  O   UNK d   1      21.550 -22.232  18.866  0.00  0.00    -0.647 OA
ENDBRANCH  11  12
ENDBRANCH  10  11
ENDBRANCH   9  10
ENDBRANCH   1   9
TORSDOF 6
ENDMDL
MODEL 9
REMARK minimizedAffinity -3.14481473REMARK CNNscore 0.55567354REMARK CNNaffinity 2.80284047REMARK  6 active torsions:
REMARK  status: ('A' for Active; 'I' for Inactive)
REMARK    1  A    between atoms: S_1  and  C_8 
REMARK    2  A    between atoms: S_1  and  C_10 
REMARK    3  A    between atoms: N_6  and  C_7 
REMARK    4  A    between atoms: C_7  and  C_9 
REMARK    5  A    between atoms: C_7  and  C_8 
REMARK    6  A    between atoms: C_10  and  C_11 
ROOT
ATOM      1  C   UNK d   1      -3.086   9.788  -8.478  0.00  0.00     0.292 C 
ENDROOT
BRANCH   1   2
ATOM      2  N   UNK d   1      -2.021   9.795  -7.412  0.00  0.00    -0.065 N 
ATOM      3  H   UNK d   1      -2.118  10.515  -6.704  0.00  0.00     0.275 HD
ATOM      4  H   UNK d   1      -1.051   9.903  -7.807  0.00  0.00     0.275 HD
ATOM      5  H   UNK d   1      -2.058   8.843  -7.003  0.00  0.00     0.275 HD
ENDBRANCH   1   2
BRANCH   1   6
ATOM      6  C   UNK d   1      -3.704   8.367  -8.612  0.00  0.00     0.205 C 
ATOM      7  O   UNK d   1      -3.242   7.760  -9.634  0.00  0.00    -0.646 OA
ATOM      8  O   UNK d   1      -4.508   7.991  -7.726  0.00  0.00    -0.646 OA
ENDBRANCH   1   6
BRANCH   1   9
ATOM      9  C   UNK d   1      -2.529  10.243  -9.825  0.00  0.00     0.118 C 
BRANCH   9  10
ATOM     10  S   UNK d   1      -3.776  11.166 -10.823  0.00  0.00    -0.156 SA
BRANCH  10  11
ATOM     11  C   UNK d   1      -2.695  12.406 -11.641  0.00  0.00     0.186 C 
BRANCH  11  12
ATOM     12  C   UNK d   1      -2.548  11.979 -13.105  0.00  0.00     0.182 C 
ATOM     13  O   UNK d   1      -3.015  12.798 -13.961  0.00  0.00    -0.647 OA
ATOM     14  O   UNK d   1      -2.007  10.862 -13.314  0.00  0.00    -0.647 OA
ENDBRANCH  11  12
ENDBRANCH  10  11
ENDBRANCH   9  10
ENDBRANCH   1   9
TORSDOF 6
ENDMDL
