MODEL 1
REMARK minimizedAffinity -3.75184512REMARK CNNscore 0.781463861REMARK CNNaffinity 3.20054817REMARK  1 active torsions:
REMARK  status: ('A' for Active; 'I' for Inactive)
REMARK    1  A    between atoms: C_3  and  C_7 
ROOT
ATOM      1  N   LIG d   1      19.530  -2.764  35.200  0.00  0.00    -0.067 N 
ATOM      2  C   LIG d   1      18.612  -3.910  34.799  0.00  0.00     0.222 C 
ATOM      3  C   LIG d   1      17.480  -3.163  34.089  0.00  0.00     0.040 C 
ATOM      4  C   LIG d   1      18.094  -1.896  33.498  0.00  0.00     0.030 C 
ATOM      5  C   LIG d   1      19.500  -1.781  34.064  0.00  0.00     0.235 C 
ATOM      6  C   LIG d   1      20.907  -3.128  35.658  0.00  0.00     0.270 C 
ATOM      7  H   LIG d   1      19.074  -2.305  35.999  0.00  0.00     0.280 HD
ENDROOT
BRANCH   2   8
ATOM      8  C   LIG d   1      19.269  -5.016  34.012  0.00  0.00    -0.010 A 
ATOM      9  C   LIG d   1      19.697  -6.184  34.662  0.00  0.00     0.012 A 
ATOM     10  C   LIG d   1      20.332  -7.198  33.946  0.00  0.00     0.020 A 
ATOM     11  C   LIG d   1      20.531  -7.014  32.592  0.00  0.00     0.116 A 
ATOM     12  N   LIG d   1      20.140  -5.905  31.930  0.00  0.00    -0.273 NA
ATOM     13  C   LIG d   1      19.513  -4.946  32.643  0.00  0.00     0.125 A 
ENDBRANCH   2   8
TORSDOF 1
ENDMDL
MODEL 2
REMARK minimizedAffinity -3.38387728REMARK CNNscore 0.715111375REMARK CNNaffinity 2.9708159REMARK  1 active torsions:
REMARK  status: ('A' for Active; 'I' for Inactive)
REMARK    1  A    between atoms: C_3  and  C_7 
ROOT
ATOM      1  N   LIG d   1      24.477  11.131  10.160  0.00  0.00    -0.067 N 
ATOM      2  C   LIG d   1      23.732  10.139  11.042  0.00  0.00     0.222 C 
ATOM      3  C   LIG d   1      22.365  10.082  10.354  0.00  0.00     0.040 C 
ATOM      4  C   LIG d   1      22.607  10.380   8.876  0.00  0.00     0.030 C 
ATOM      5  C   LIG d   1      24.047  10.846   8.748  0.00  0.00     0.235 C 
ATOM      6  C   LIG d   1      25.959  11.218  10.342  0.00  0.00     0.270 C 
ATOM      7  H   LIG d   1      24.104  12.057  10.401  0.00  0.00     0.280 HD
ENDROOT
BRANCH   2   8
ATOM      8  C   LIG d   1      24.423   8.814  11.249  0.00  0.00    -0.010 A 
ATOM      9  C   LIG d   1      24.245   7.776  10.321  0.00  0.00     0.012 A 
ATOM     10  C   LIG d   1      24.856   6.540  10.520  0.00  0.00     0.020 A 
ATOM     11  C   LIG d   1      25.628   6.369  11.653  0.00  0.00     0.116 A 
ATOM     12  N   LIG d   1      25.820   7.338  12.571  0.00  0.00    -0.273 NA
ATOM     13  C   LIG d   1      25.231   8.531  12.347  0.00  0.00     0.125 A 
ENDBRANCH   2   8
TORSDOF 1
ENDMDL
MODEL 3
REMARK minimizedAffinity -4.1667757REMARK CNNscore 0.68477422REMARK CNNaffinity 3.20607448REMARK  1 active torsions:
REMARK  status: ('A' for Active; 'I' for Inactive)
REMARK    1  A    between atoms: C_3  and  C_7 
ROOT
ATOM      1  N   LIG d   1       5.179  29.544 -14.560  0.00  0.00    -0.067 N 
ATOM      2  C   LIG d   1       5.032  28.029 -14.560  0.00  0.00     0.222 C 
ATOM      3  C   LIG d   1       5.222  27.703 -16.044  0.00  0.00     0.040 C 
ATOM      4  C   LIG d   1       6.128  28.789 -16.619  0.00  0.00     0.030 C 
ATOM      5  C   LIG d   1       6.261  29.864 -15.553  0.00  0.00     0.235 C 
ATOM      6  C   LIG d   1       5.355  30.207 -13.231  0.00  0.00     0.270 C 
ATOM      7  H   LIG d   1       4.302  29.912 -14.950  0.00  0.00     0.280 HD
ENDROOT
BRANCH   2   8
ATOM      8  C   LIG d   1       5.935  27.294 -13.601  0.00  0.00    -0.010 A 
ATOM      9  C   LIG d   1       5.418  26.782 -12.400  0.00  0.00     0.012 A 
ATOM     10  C   LIG d   1       6.252  26.128 -11.496  0.00  0.00     0.020 A 
ATOM     11  C   LIG d   1       7.591  26.008 -11.812  0.00  0.00     0.116 A 
ATOM     12  N   LIG d   1       8.128  26.490 -12.952  0.00  0.00    -0.273 NA
ATOM     13  C   LIG d   1       7.297  27.105 -13.819  0.00  0.00     0.125 A 
ENDBRANCH   2   8
TORSDOF 1
ENDMDL
MODEL 4
REMARK minimizedAffinity -4.95369816REMARK CNNscore 0.681055307REMARK CNNaffinity 3.65710688REMARK  1 active torsions:
REMARK  status: ('A' for Active; 'I' for Inactive)
REMARK    1  A    between atoms: C_3  and  C_7 
ROOT
ATOM      1  N   LIG d   1      20.269   6.257  -3.045  0.00  0.00    -0.067 N 
ATOM      2  C   LIG d   1      18.837   6.510  -3.494  0.00  0.00     0.222 C 
ATOM      3  C   LIG d   1      18.705   8.019  -3.266  0.00  0.00     0.040 C 
ATOM      4  C   LIG d   1      20.104   8.610  -3.431  0.00  0.00     0.030 C 
ATOM      5  C   LIG d   1      21.072   7.441  -3.506  0.00  0.00     0.235 C 
ATOM      6  C   LIG d   1      20.867   4.935  -3.405  0.00  0.00     0.270 C 
ATOM      7  H   LIG d   1      20.252   6.294  -2.018  0.00  0.00     0.280 HD
ENDROOT
BRANCH   2   8
ATOM      8  C   LIG d   1      18.500   6.020  -4.880  0.00  0.00    -0.010 A 
ATOM      9  C   LIG d   1      18.922   6.747  -6.005  0.00  0.00     0.012 A 
ATOM     10  C   LIG d   1      18.589   6.316  -7.288  0.00  0.00     0.020 A 
ATOM     11  C   LIG d   1      17.832   5.167  -7.415  0.00  0.00     0.116 A 
ATOM     12  N   LIG d   1      17.403   4.443  -6.360  0.00  0.00    -0.273 NA
ATOM     13  C   LIG d   1      17.752   4.872  -5.129  0.00  0.00     0.125 A 
ENDBRANCH   2   8
TORSDOF 1
ENDMDL
MODEL 5
REMARK minimizedAffinity -3.23162723REMARK CNNscore 0.588476598REMARK CNNaffinity 2.89754462REMARK  1 active torsions:
REMARK  status: ('A' for Active; 'I' for Inactive)
REMARK    1  A    between atoms: C_3  and  C_7 
ROOT
ATOM      1  N   LIG d   1      27.653  -6.137   4.739  0.00  0.00    -0.067 N 
ATOM      2  C   LIG d   1      26.339  -5.375   4.833  0.00  0.00     0.222 C 
ATOM      3  C   LIG d   1      26.563  -4.250   3.819  0.00  0.00     0.040 C 
ATOM      4  C   LIG d   1      27.525  -4.794   2.766  0.00  0.00     0.030 C 
ATOM      5  C   LIG d   1      28.047  -6.122   3.288  0.00  0.00     0.235 C 
ATOM      6  C   LIG d   1      27.697  -7.492   5.370  0.00  0.00     0.270 C 
ATOM      7  H   LIG d   1      28.346  -5.565   5.238  0.00  0.00     0.280 HD
ENDROOT
BRANCH   2   8
ATOM      8  C   LIG d   1      25.096  -6.207   4.633  0.00  0.00    -0.010 A 
ATOM      9  C   LIG d   1      24.357  -6.645   5.743  0.00  0.00     0.012 A 
ATOM     10  C   LIG d   1      23.225  -7.438   5.567  0.00  0.00     0.020 A 
ATOM     11  C   LIG d   1      22.862  -7.782   4.279  0.00  0.00     0.116 A 
ATOM     12  N   LIG d   1      23.548  -7.387   3.187  0.00  0.00    -0.273 NA
ATOM     13  C   LIG d   1      24.631  -6.606   3.383  0.00  0.00     0.125 A 
ENDBRANCH   2   8
TORSDOF 1
ENDMDL
MODEL 6
REMARK minimizedAffinity -3.2296133REMARK CNNscore 0.577013969REMARK CNNaffinity 2.79148817REMARK  1 active torsions:
REMARK  status: ('A' for Active; 'I' for Inactive)
REMARK    1  A    between atoms: C_3  and  C_7 
ROOT
ATOM      1  N   LIG d   1      -4.711  20.072 -13.907  0.00  0.00    -0.067 N 
ATOM      2  C   LIG d   1      -3.585  21.088 -13.789  0.00  0.00     0.222 C 
ATOM      3  C   LIG d   1      -2.952  20.693 -12.452  0.00  0.00     0.040 C 
ATOM      4  C   LIG d   1      -3.198  19.196 -12.277  0.00  0.00     0.030 C 
ATOM      5  C   LIG d   1      -4.170  18.777 -13.368  0.00  0.00     0.235 C 
ATOM      6  C   LIG d   1      -5.375  19.948 -15.242  0.00  0.00     0.270 C 
ATOM      7  H   LIG d   1      -5.440  20.382 -13.252  0.00  0.00     0.280 HD
ENDROOT
BRANCH   2   8
ATOM      8  C   LIG d   1      -2.648  21.152 -14.970  0.00  0.00    -0.010 A 
ATOM      9  C   LIG d   1      -2.721  22.229 -15.868  0.00  0.00     0.012 A 
ATOM     10  C   LIG d   1      -1.879  22.279 -16.977  0.00  0.00     0.020 A 
ATOM     11  C   LIG d   1      -0.985  21.243 -17.166  0.00  0.00     0.116 A 
ATOM     12  N   LIG d   1      -0.887  20.188 -16.330  0.00  0.00    -0.273 NA
ATOM     13  C   LIG d   1      -1.702  20.171 -15.255  0.00  0.00     0.125 A 
ENDBRANCH   2   8
TORSDOF 1
ENDMDL
MODEL 7
REMARK minimizedAffinity -3.27283359REMARK CNNscore 0.544886112REMARK CNNaffinity 2.9541831REMARK  1 active torsions:
REMARK  status: ('A' for Active; 'I' for Inactive)
REMARK    1  A    between atoms: C_3  and  C_7 
ROOT
ATOM      1  N   LIG d   1      21.311  -8.888  35.664  0.00  0.00    -0.067 N 
ATOM      2  C   LIG d   1      21.558  -8.595  34.191  0.00  0.00     0.222 C 
ATOM      3  C   LIG d   1      20.855  -9.780  33.522  0.00  0.00     0.040 C 
ATOM      4  C   LIG d   1      19.723 -10.202  34.456  0.00  0.00     0.030 C 
ATOM      5  C   LIG d   1      19.918  -9.444  35.758  0.00  0.00     0.235 C 
ATOM      6  C   LIG d   1      21.593  -7.781  36.630  0.00  0.00     0.270 C 
ATOM      7  H   LIG d   1      21.951  -9.653  35.910  0.00  0.00     0.280 HD
ENDROOT
BRANCH   2   8
ATOM      8  C   LIG d   1      21.132  -7.226  33.726  0.00  0.00    -0.010 A 
ATOM      9  C   LIG d   1      19.868  -7.042  33.142  0.00  0.00     0.012 A 
ATOM     10  C   LIG d   1      19.480  -5.785  32.682  0.00  0.00     0.020 A 
ATOM     11  C   LIG d   1      20.372  -4.739  32.812  0.00  0.00     0.116 A 
ATOM     12  N   LIG d   1      21.597  -4.874  33.362  0.00  0.00    -0.273 NA
ATOM     13  C   LIG d   1      21.943  -6.097  33.814  0.00  0.00     0.125 A 
ENDBRANCH   2   8
TORSDOF 1
ENDMDL
MODEL 8
REMARK minimizedAffinity -3.50246716REMARK CNNscore 0.542241395REMARK CNNaffinity 2.87746739REMARK  1 active torsions:
REMARK  status: ('A' for Active; 'I' for Inactive)
REMARK    1  A    between atoms: C_3  and  C_7 
ROOT
ATOM      1  N   LIG d   1       6.514 -27.380  24.007  0.00  0.00    -0.067 N 
ATOM      2  C   LIG d   1       6.647 -26.209  23.044  0.00  0.00     0.222 C 
ATOM      3  C   LIG d   1       5.657 -25.206  23.642  0.00  0.00     0.040 C 
ATOM      4  C   LIG d   1       5.603 -25.485  25.142  0.00  0.00     0.030 C 
ATOM      5  C   LIG d   1       6.354 -26.785  25.377  0.00  0.00     0.235 C 
ATOM      6  C   LIG d   1       7.558 -28.448  23.922  0.00  0.00     0.270 C 
ATOM      7  H   LIG d   1       5.621 -27.834  23.776  0.00  0.00     0.280 HD
ENDROOT
BRANCH   2   8
ATOM      8  C   LIG d   1       8.053 -25.704  22.834  0.00  0.00    -0.010 A 
ATOM      9  C   LIG d   1       8.575 -24.708  23.673  0.00  0.00     0.012 A 
ATOM     10  C   LIG d   1       9.862 -24.215  23.466  0.00  0.00     0.020 A 
ATOM     11  C   LIG d   1      10.596 -24.728  22.415  0.00  0.00     0.116 A 
ATOM     12  N   LIG d   1      10.129 -25.681  21.582  0.00  0.00    -0.273 NA
ATOM     13  C   LIG d   1       8.887 -26.154  21.813  0.00  0.00     0.125 A 
ENDBRANCH   2   8
TORSDOF 1
ENDMDL
MODEL 9
REMARK minimizedAffinity -3.28941536REMARK CNNscore 0.537443876REMARK CNNaffinity 2.91693115REMARK  1 active torsions:
REMARK  status: ('A' for Active; 'I' for Inactive)
REMARK    1  A    between atoms: C_3  and  C_7 
ROOT
ATOM      1  N   LIG d   1      19.896  -4.815  35.192  0.00  0.00    -0.067 N 
ATOM      2  C   LIG d   1      20.543  -3.912  34.151  0.00  0.00     0.222 C 
ATOM      3  C   LIG d   1      20.624  -4.848  32.941  0.00  0.00     0.040 C 
ATOM      4  C   LIG d   1      19.468  -5.837  33.074  0.00  0.00     0.030 C 
ATOM      5  C   LIG d   1      18.875  -5.640  34.460  0.00  0.00     0.235 C 
ATOM      6  C   LIG d   1      19.375  -4.155  36.429  0.00  0.00     0.270 C 
ATOM      7  H   LIG d   1      20.632  -5.462  35.500  0.00  0.00     0.280 HD
ENDROOT
BRANCH   2   8
ATOM      8  C   LIG d   1      19.849  -2.593  33.920  0.00  0.00    -0.010 A 
ATOM      9  C   LIG d   1      20.401  -1.409  34.433  0.00  0.00     0.012 A 
ATOM     10  C   LIG d   1      19.751  -0.191  34.249  0.00  0.00     0.020 A 
ATOM     11  C   LIG d   1      18.553  -0.187  33.560  0.00  0.00     0.116 A 
ATOM     12  N   LIG d   1      17.986  -1.303  33.057  0.00  0.00    -0.273 NA
ATOM     13  C   LIG d   1      18.644  -2.468  33.233  0.00  0.00     0.125 A 
ENDBRANCH   2   8
TORSDOF 1
ENDMDL
