MODEL 1
REMARK VINA RESULT:      -7.0      0.000      0.000
REMARK  11 active torsions:
REMARK  status: ('A' for Active; 'I' for Inactive)
REMARK    1  A    between atoms: O_1  and  C_16 
REMARK    2  A    between atoms: O_1  and  C_23 
REMARK    3  A    between atoms: O_2  and  C_20 
REMARK    4  A    between atoms: N_8  and  C_22 
REMARK    5  A    between atoms: N_8  and  C_26 
REMARK    6  A    between atoms: N_9  and  C_24 
REMARK    7  A    between atoms: C_10  and  C_13 
REMARK    8  A    between atoms: C_11  and  C_16 
REMARK    9  A    between atoms: C_12  and  C_20 
REMARK   10  A    between atoms: C_22  and  C_23 
REMARK   11  A    between atoms: C_26  and  C_28 
ROOT
ATOM      1  N   LIG d   1       5.311   1.709  21.713  0.00  0.00    -0.362 N 
ATOM      2  C   LIG d   1       7.552   0.026  22.077  0.00  0.00     0.101 C 
ATOM      3  C   LIG d   1       6.660   0.493  23.231  0.00  0.00     0.052 C 
ATOM      4  C   LIG d   1       7.010   0.402  20.708  0.00  0.00     0.052 C 
ATOM      5  C   LIG d   1       5.593   1.295  23.007  0.00  0.00     0.018 C 
ATOM      6  C   LIG d   1       5.950   1.230  20.578  0.00  0.00     0.018 C 
ATOM      7  C   LIG d   1       4.624   1.757  24.065  0.00  0.00     0.069 C 
ATOM      8  C   LIG d   1       5.368   1.652  19.252  0.00  0.00     0.069 C 
ATOM      9  H   LIG d   1       4.463   2.255  21.567  0.00  0.00     0.165 HD
ENDROOT
BRANCH   3  10
ATOM     10  C   LIG d   1       7.089  -0.004  24.555  0.00  0.00     0.292 C 
ATOM     11  O   LIG d   1       7.429   0.719  25.481  0.00  0.00    -0.259 OA
BRANCH  10  12
ATOM     12  O   LIG d   1       6.846  -1.337  24.688  0.00  0.00    -0.316 OA
BRANCH  12  13
ATOM     13  C   LIG d   1       7.465  -1.934  25.839  0.00  0.00     0.206 C 
BRANCH  13  14
ATOM     14  C   LIG d   1       8.733  -2.687  25.413  0.00  0.00     0.261 C 
BRANCH  14  15
ATOM     15  N   LIG d   1       8.804  -4.099  25.958  0.00  0.00    -0.069 N 
ATOM     16  C   LIG d   1       9.162  -4.128  27.425  0.00  0.00     0.270 C 
ATOM     17  H   LIG d   1       9.535  -4.615  25.455  0.00  0.00     0.279 HD
BRANCH  15  18
ATOM     18  C   LIG d   1       7.499  -4.828  25.681  0.00  0.00     0.273 C 
BRANCH  18  19
ATOM     19  C   LIG d   1       7.299  -5.225  24.245  0.00  0.00    -0.033 A 
ATOM     20  C   LIG d   1       6.016  -5.556  23.781  0.00  0.00     0.009 A 
ATOM     21  C   LIG d   1       5.815  -5.911  22.448  0.00  0.00     0.001 A 
ATOM     22  C   LIG d   1       6.891  -5.942  21.564  0.00  0.00     0.000 A 
ATOM     23  C   LIG d   1       8.169  -5.610  22.010  0.00  0.00     0.001 A 
ATOM     24  C   LIG d   1       8.374  -5.249  23.343  0.00  0.00     0.009 A 
ENDBRANCH  18  19
ENDBRANCH  15  18
ENDBRANCH  14  15
ENDBRANCH  13  14
ENDBRANCH  12  13
ENDBRANCH  10  12
ENDBRANCH   3  10
BRANCH   2  25
ATOM     25  C   LIG d   1       8.987   0.553  22.250  0.00  0.00    -0.042 A 
ATOM     26  C   LIG d   1      10.073  -0.335  22.188  0.00  0.00     0.044 A 
ATOM     27  C   LIG d   1      11.379   0.154  22.321  0.00  0.00     0.103 A 
ATOM     28  C   LIG d   1      11.624   1.518  22.522  0.00  0.00     0.036 A 
ATOM     29  C   LIG d   1      10.549   2.402  22.578  0.00  0.00     0.003 A 
ATOM     30  C   LIG d   1       9.242   1.925  22.438  0.00  0.00     0.008 A 
BRANCH  27  31
ATOM     31  N   LIG d   1      12.504  -0.778  22.284  0.00  0.00    -0.116 N 
ATOM     32  O   LIG d   1      12.284  -1.957  22.590  0.00  0.00    -0.532 OA
ATOM     33  O   LIG d   1      13.617  -0.310  22.001  0.00  0.00    -0.532 OA
ENDBRANCH  27  31
ENDBRANCH   2  25
BRANCH   4  34
ATOM     34  C   LIG d   1       7.705  -0.160  19.527  0.00  0.00     0.291 C 
ATOM     35  O   LIG d   1       8.449   0.471  18.794  0.00  0.00    -0.260 OA
BRANCH  34  36
ATOM     36  O   LIG d   1       7.378  -1.470  19.400  0.00  0.00    -0.323 OA
ATOM     37  C   LIG d   1       7.869  -2.082  18.207  0.00  0.00     0.213 C 
ENDBRANCH  34  36
ENDBRANCH   4  34
TORSDOF 11
ENDMDL
MODEL 2
REMARK VINA RESULT:      -6.7      2.511      7.037
REMARK  11 active torsions:
REMARK  status: ('A' for Active; 'I' for Inactive)
REMARK    1  A    between atoms: O_1  and  C_16 
REMARK    2  A    between atoms: O_1  and  C_23 
REMARK    3  A    between atoms: O_2  and  C_20 
REMARK    4  A    between atoms: N_8  and  C_22 
REMARK    5  A    between atoms: N_8  and  C_26 
REMARK    6  A    between atoms: N_9  and  C_24 
REMARK    7  A    between atoms: C_10  and  C_13 
REMARK    8  A    between atoms: C_11  and  C_16 
REMARK    9  A    between atoms: C_12  and  C_20 
REMARK   10  A    between atoms: C_22  and  C_23 
REMARK   11  A    between atoms: C_26  and  C_28 
ROOT
ATOM      1  N   LIG d   1       8.101  -3.858  21.431  0.00  0.00    -0.362 N 
ATOM      2  C   LIG d   1       8.484  -1.170  22.215  0.00  0.00     0.101 C 
ATOM      3  C   LIG d   1       8.093  -1.579  20.792  0.00  0.00     0.052 C 
ATOM      4  C   LIG d   1       8.464  -2.328  23.200  0.00  0.00     0.052 C 
ATOM      5  C   LIG d   1       7.914  -2.880  20.464  0.00  0.00     0.018 C 
ATOM      6  C   LIG d   1       8.303  -3.602  22.779  0.00  0.00     0.018 C 
ATOM      7  C   LIG d   1       7.472  -3.376  19.111  0.00  0.00     0.069 C 
ATOM      8  C   LIG d   1       8.283  -4.797  23.700  0.00  0.00     0.069 C 
ATOM      9  H   LIG d   1       7.893  -4.822  21.172  0.00  0.00     0.165 HD
ENDROOT
BRANCH   3  10
ATOM     10  C   LIG d   1       7.950  -0.439  19.862  0.00  0.00     0.292 C 
ATOM     11  O   LIG d   1       8.827  -0.069  19.093  0.00  0.00    -0.259 OA
BRANCH  10  12
ATOM     12  O   LIG d   1       6.663  -0.000  19.808  0.00  0.00    -0.316 OA
BRANCH  12  13
ATOM     13  C   LIG d   1       6.495   1.238  19.098  0.00  0.00     0.206 C 
BRANCH  13  14
ATOM     14  C   LIG d   1       5.217   1.940  19.577  0.00  0.00     0.261 C 
BRANCH  14  15
ATOM     15  N   LIG d   1       5.484   3.110  20.502  0.00  0.00    -0.069 N 
ATOM     16  C   LIG d   1       4.253   3.519  21.276  0.00  0.00     0.270 C 
ATOM     17  H   LIG d   1       5.776   3.919  19.942  0.00  0.00     0.279 HD
BRANCH  15  18
ATOM     18  C   LIG d   1       6.649   2.786  21.424  0.00  0.00     0.273 C 
BRANCH  18  19
ATOM     19  C   LIG d   1       7.075   3.922  22.312  0.00  0.00    -0.033 A 
ATOM     20  C   LIG d   1       6.860   3.847  23.698  0.00  0.00     0.009 A 
ATOM     21  C   LIG d   1       7.266   4.887  24.534  0.00  0.00     0.001 A 
ATOM     22  C   LIG d   1       7.886   6.012  23.997  0.00  0.00     0.000 A 
ATOM     23  C   LIG d   1       8.110   6.097  22.624  0.00  0.00     0.001 A 
ATOM     24  C   LIG d   1       7.711   5.056  21.784  0.00  0.00     0.009 A 
ENDBRANCH  18  19
ENDBRANCH  15  18
ENDBRANCH  14  15
ENDBRANCH  13  14
ENDBRANCH  12  13
ENDBRANCH  10  12
ENDBRANCH   3  10
BRANCH   2  25
ATOM     25  C   LIG d   1       9.858  -0.479  22.225  0.00  0.00    -0.042 A 
ATOM     26  C   LIG d   1       9.969   0.856  22.646  0.00  0.00     0.044 A 
ATOM     27  C   LIG d   1      11.227   1.472  22.677  0.00  0.00     0.103 A 
ATOM     28  C   LIG d   1      12.382   0.781  22.289  0.00  0.00     0.036 A 
ATOM     29  C   LIG d   1      12.275  -0.546  21.878  0.00  0.00     0.003 A 
ATOM     30  C   LIG d   1      11.026  -1.172  21.850  0.00  0.00     0.008 A 
BRANCH  27  31
ATOM     31  N   LIG d   1      11.333   2.871  23.088  0.00  0.00    -0.116 N 
ATOM     32  O   LIG d   1      10.346   3.389  23.626  0.00  0.00    -0.532 OA
ATOM     33  O   LIG d   1      12.390   3.460  22.817  0.00  0.00    -0.532 OA
ENDBRANCH  27  31
ENDBRANCH   2  25
BRANCH   4  34
ATOM     34  C   LIG d   1       8.652  -2.001  24.632  0.00  0.00     0.291 C 
ATOM     35  O   LIG d   1       9.703  -2.121  25.240  0.00  0.00    -0.260 OA
BRANCH  34  36
ATOM     36  O   LIG d   1       7.476  -1.558  25.144  0.00  0.00    -0.323 OA
ATOM     37  C   LIG d   1       7.546  -0.254  25.723  0.00  0.00     0.213 C 
ENDBRANCH  34  36
ENDBRANCH   4  34
TORSDOF 11
ENDMDL
MODEL 3
REMARK VINA RESULT:      -6.7     29.524     32.091
REMARK  11 active torsions:
REMARK  status: ('A' for Active; 'I' for Inactive)
REMARK    1  A    between atoms: O_1  and  C_16 
REMARK    2  A    between atoms: O_1  and  C_23 
REMARK    3  A    between atoms: O_2  and  C_20 
REMARK    4  A    between atoms: N_8  and  C_22 
REMARK    5  A    between atoms: N_8  and  C_26 
REMARK    6  A    between atoms: N_9  and  C_24 
REMARK    7  A    between atoms: C_10  and  C_13 
REMARK    8  A    between atoms: C_11  and  C_16 
REMARK    9  A    between atoms: C_12  and  C_20 
REMARK   10  A    between atoms: C_22  and  C_23 
REMARK   11  A    between atoms: C_26  and  C_28 
ROOT
ATOM      1  N   LIG d   1      17.689  -1.984  -9.989  0.00  0.00    -0.362 N 
ATOM      2  C   LIG d   1      15.261  -1.991  -8.543  0.00  0.00     0.101 C 
ATOM      3  C   LIG d   1      16.559  -1.390  -7.996  0.00  0.00     0.052 C 
ATOM      4  C   LIG d   1      15.361  -2.413 -10.001  0.00  0.00     0.052 C 
ATOM      5  C   LIG d   1      17.697  -1.404  -8.728  0.00  0.00     0.018 C 
ATOM      6  C   LIG d   1      16.547  -2.419 -10.647  0.00  0.00     0.018 C 
ATOM      7  C   LIG d   1      19.004  -0.787  -8.302  0.00  0.00     0.069 C 
ATOM      8  C   LIG d   1      16.720  -2.834 -12.087  0.00  0.00     0.069 C 
ATOM      9  H   LIG d   1      18.542  -1.919 -10.543  0.00  0.00     0.165 HD
ENDROOT
BRANCH   3  10
ATOM     10  C   LIG d   1      16.428  -0.828  -6.635  0.00  0.00     0.292 C 
ATOM     11  O   LIG d   1      16.962  -1.305  -5.644  0.00  0.00    -0.259 OA
BRANCH  10  12
ATOM     12  O   LIG d   1      15.834   0.396  -6.658  0.00  0.00    -0.316 OA
BRANCH  12  13
ATOM     13  C   LIG d   1      16.268   1.278  -5.610  0.00  0.00     0.206 C 
BRANCH  13  14
ATOM     14  C   LIG d   1      16.545   2.673  -6.189  0.00  0.00     0.261 C 
BRANCH  14  15
ATOM     15  N   LIG d   1      17.931   3.193  -5.866  0.00  0.00    -0.069 N 
ATOM     16  C   LIG d   1      19.015   2.227  -6.280  0.00  0.00     0.270 C 
ATOM     17  H   LIG d   1      18.010   3.325  -4.851  0.00  0.00     0.279 HD
BRANCH  15  18
ATOM     18  C   LIG d   1      18.128   4.564  -6.492  0.00  0.00     0.273 C 
BRANCH  18  19
ATOM     19  C   LIG d   1      18.560   5.634  -5.527  0.00  0.00    -0.033 A 
ATOM     20  C   LIG d   1      19.915   5.990  -5.437  0.00  0.00     0.009 A 
ATOM     21  C   LIG d   1      20.326   6.992  -4.558  0.00  0.00     0.001 A 
ATOM     22  C   LIG d   1      19.392   7.645  -3.758  0.00  0.00     0.000 A 
ATOM     23  C   LIG d   1      18.043   7.304  -3.842  0.00  0.00     0.001 A 
ATOM     24  C   LIG d   1      17.626   6.307  -4.724  0.00  0.00     0.009 A 
ENDBRANCH  18  19
ENDBRANCH  15  18
ENDBRANCH  14  15
ENDBRANCH  13  14
ENDBRANCH  12  13
ENDBRANCH  10  12
ENDBRANCH   3  10
BRANCH   2  25
ATOM     25  C   LIG d   1      14.797  -3.171  -7.673  0.00  0.00    -0.042 A 
ATOM     26  C   LIG d   1      15.672  -4.239  -7.414  0.00  0.00     0.044 A 
ATOM     27  C   LIG d   1      15.252  -5.299  -6.600  0.00  0.00     0.103 A 
ATOM     28  C   LIG d   1      13.968  -5.318  -6.041  0.00  0.00     0.036 A 
ATOM     29  C   LIG d   1      13.101  -4.256  -6.290  0.00  0.00     0.003 A 
ATOM     30  C   LIG d   1      13.513  -3.190  -7.095  0.00  0.00     0.008 A 
BRANCH  27  31
ATOM     31  N   LIG d   1      16.156  -6.422  -6.357  0.00  0.00    -0.116 N 
ATOM     32  O   LIG d   1      16.991  -6.686  -7.231  0.00  0.00    -0.532 OA
ATOM     33  O   LIG d   1      15.985  -7.068  -5.313  0.00  0.00    -0.532 OA
ENDBRANCH  27  31
ENDBRANCH   2  25
BRANCH   4  34
ATOM     34  C   LIG d   1      14.110  -2.837 -10.670  0.00  0.00     0.291 C 
ATOM     35  O   LIG d   1      13.718  -3.990 -10.742  0.00  0.00    -0.260 OA
BRANCH  34  36
ATOM     36  O   LIG d   1      13.489  -1.745 -11.183  0.00  0.00    -0.323 OA
ATOM     37  C   LIG d   1      12.112  -1.954 -11.502  0.00  0.00     0.213 C 
ENDBRANCH  34  36
ENDBRANCH   4  34
TORSDOF 11
ENDMDL
MODEL 4
REMARK VINA RESULT:      -6.6      2.133      6.168
REMARK  11 active torsions:
REMARK  status: ('A' for Active; 'I' for Inactive)
REMARK    1  A    between atoms: O_1  and  C_16 
REMARK    2  A    between atoms: O_1  and  C_23 
REMARK    3  A    between atoms: O_2  and  C_20 
REMARK    4  A    between atoms: N_8  and  C_22 
REMARK    5  A    between atoms: N_8  and  C_26 
REMARK    6  A    between atoms: N_9  and  C_24 
REMARK    7  A    between atoms: C_10  and  C_13 
REMARK    8  A    between atoms: C_11  and  C_16 
REMARK    9  A    between atoms: C_12  and  C_20 
REMARK   10  A    between atoms: C_22  and  C_23 
REMARK   11  A    between atoms: C_26  and  C_28 
ROOT
ATOM      1  N   LIG d   1      10.545  -0.143  25.823  0.00  0.00    -0.362 N 
ATOM      2  C   LIG d   1       8.944  -1.108  23.704  0.00  0.00     0.101 C 
ATOM      3  C   LIG d   1       8.384  -0.767  25.088  0.00  0.00     0.052 C 
ATOM      4  C   LIG d   1      10.399  -0.703  23.529  0.00  0.00     0.052 C 
ATOM      5  C   LIG d   1       9.189  -0.302  26.072  0.00  0.00     0.018 C 
ATOM      6  C   LIG d   1      11.136  -0.270  24.574  0.00  0.00     0.018 C 
ATOM      7  C   LIG d   1       8.723   0.116  27.442  0.00  0.00     0.069 C 
ATOM      8  C   LIG d   1      12.585   0.137  24.473  0.00  0.00     0.069 C 
ATOM      9  H   LIG d   1      11.113   0.273  26.560  0.00  0.00     0.165 HD
ENDROOT
BRANCH   3  10
ATOM     10  C   LIG d   1       6.931  -1.006  25.218  0.00  0.00     0.292 C 
ATOM     11  O   LIG d   1       6.439  -2.083  25.525  0.00  0.00    -0.259 OA
BRANCH  10  12
ATOM     12  O   LIG d   1       6.230   0.160  25.176  0.00  0.00    -0.316 OA
BRANCH  12  13
ATOM     13  C   LIG d   1       6.480   0.952  24.003  0.00  0.00     0.206 C 
BRANCH  13  14
ATOM     14  C   LIG d   1       5.155   1.505  23.460  0.00  0.00     0.261 C 
BRANCH  14  15
ATOM     15  N   LIG d   1       5.335   2.487  22.320  0.00  0.00    -0.069 N 
ATOM     16  C   LIG d   1       6.789   2.816  22.074  0.00  0.00     0.270 C 
ATOM     17  H   LIG d   1       4.859   3.365  22.557  0.00  0.00     0.279 HD
BRANCH  15  18
ATOM     18  C   LIG d   1       4.657   1.956  21.068  0.00  0.00     0.273 C 
BRANCH  18  19
ATOM     19  C   LIG d   1       5.585   1.289  20.090  0.00  0.00    -0.033 A 
ATOM     20  C   LIG d   1       6.382   0.211  20.506  0.00  0.00     0.009 A 
ATOM     21  C   LIG d   1       7.235  -0.427  19.605  0.00  0.00     0.001 A 
ATOM     22  C   LIG d   1       7.303   0.006  18.283  0.00  0.00     0.000 A 
ATOM     23  C   LIG d   1       6.513   1.072  17.857  0.00  0.00     0.001 A 
ATOM     24  C   LIG d   1       5.654   1.710  18.753  0.00  0.00     0.009 A 
ENDBRANCH  18  19
ENDBRANCH  15  18
ENDBRANCH  14  15
ENDBRANCH  13  14
ENDBRANCH  12  13
ENDBRANCH  10  12
ENDBRANCH   3  10
BRANCH   2  25
ATOM     25  C   LIG d   1       8.761  -2.603  23.395  0.00  0.00    -0.042 A 
ATOM     26  C   LIG d   1       8.134  -3.001  22.203  0.00  0.00     0.044 A 
ATOM     27  C   LIG d   1       7.992  -4.366  21.916  0.00  0.00     0.103 A 
ATOM     28  C   LIG d   1       8.461  -5.345  22.800  0.00  0.00     0.036 A 
ATOM     29  C   LIG d   1       9.090  -4.952  23.979  0.00  0.00     0.003 A 
ATOM     30  C   LIG d   1       9.242  -3.594  24.273  0.00  0.00     0.008 A 
BRANCH  27  31
ATOM     31  N   LIG d   1       7.313  -4.775  20.687  0.00  0.00    -0.116 N 
ATOM     32  O   LIG d   1       7.119  -5.985  20.514  0.00  0.00    -0.532 OA
ATOM     33  O   LIG d   1       7.027  -3.883  19.875  0.00  0.00    -0.532 OA
ENDBRANCH  27  31
ENDBRANCH   2  25
BRANCH   4  34
ATOM     34  C   LIG d   1      10.976  -0.826  22.170  0.00  0.00     0.291 C 
ATOM     35  O   LIG d   1      11.903  -1.561  21.873  0.00  0.00    -0.260 OA
BRANCH  34  36
ATOM     36  O   LIG d   1      10.311   0.007  21.329  0.00  0.00    -0.323 OA
ATOM     37  C   LIG d   1      10.624   1.389  21.508  0.00  0.00     0.213 C 
ENDBRANCH  34  36
ENDBRANCH   4  34
TORSDOF 11
ENDMDL
MODEL 5
REMARK VINA RESULT:      -6.5     27.838     31.626
REMARK  11 active torsions:
REMARK  status: ('A' for Active; 'I' for Inactive)
REMARK    1  A    between atoms: O_1  and  C_16 
REMARK    2  A    between atoms: O_1  and  C_23 
REMARK    3  A    between atoms: O_2  and  C_20 
REMARK    4  A    between atoms: N_8  and  C_22 
REMARK    5  A    between atoms: N_8  and  C_26 
REMARK    6  A    between atoms: N_9  and  C_24 
REMARK    7  A    between atoms: C_10  and  C_13 
REMARK    8  A    between atoms: C_11  and  C_16 
REMARK    9  A    between atoms: C_12  and  C_20 
REMARK   10  A    between atoms: C_22  and  C_23 
REMARK   11  A    between atoms: C_26  and  C_28 
ROOT
ATOM      1  N   LIG d   1      15.901  -2.394  -9.889  0.00  0.00    -0.362 N 
ATOM      2  C   LIG d   1      16.184  -2.205  -7.084  0.00  0.00     0.101 C 
ATOM      3  C   LIG d   1      17.375  -2.218  -8.046  0.00  0.00     0.052 C 
ATOM      4  C   LIG d   1      14.841  -2.117  -7.791  0.00  0.00     0.052 C 
ATOM      5  C   LIG d   1      17.191  -2.305  -9.384  0.00  0.00     0.018 C 
ATOM      6  C   LIG d   1      14.748  -2.238  -9.133  0.00  0.00     0.018 C 
ATOM      7  C   LIG d   1      18.293  -2.265 -10.411  0.00  0.00     0.069 C 
ATOM      8  C   LIG d   1      13.449  -2.170  -9.897  0.00  0.00     0.069 C 
ATOM      9  H   LIG d   1      15.791  -2.389 -10.902  0.00  0.00     0.165 HD
ENDROOT
BRANCH   3  10
ATOM     10  C   LIG d   1      18.688  -2.139  -7.370  0.00  0.00     0.292 C 
ATOM     11  O   LIG d   1      19.605  -2.925  -7.563  0.00  0.00    -0.259 OA
BRANCH  10  12
ATOM     12  O   LIG d   1      18.826  -0.970  -6.688  0.00  0.00    -0.316 OA
BRANCH  12  13
ATOM     13  C   LIG d   1      19.583   0.032  -7.388  0.00  0.00     0.206 C 
BRANCH  13  14
ATOM     14  C   LIG d   1      20.464   0.802  -6.395  0.00  0.00     0.261 C 
BRANCH  14  15
ATOM     15  N   LIG d   1      20.618   2.269  -6.740  0.00  0.00    -0.069 N 
ATOM     16  C   LIG d   1      21.098   2.476  -8.157  0.00  0.00     0.270 C 
ATOM     17  H   LIG d   1      21.317   2.688  -6.116  0.00  0.00     0.279 HD
BRANCH  15  18
ATOM     18  C   LIG d   1      19.313   3.003  -6.474  0.00  0.00     0.273 C 
BRANCH  18  19
ATOM     19  C   LIG d   1      19.405   4.500  -6.587  0.00  0.00    -0.033 A 
ATOM     20  C   LIG d   1      18.467   5.203  -7.359  0.00  0.00     0.009 A 
ATOM     21  C   LIG d   1      18.532   6.592  -7.459  0.00  0.00     0.001 A 
ATOM     22  C   LIG d   1      19.534   7.294  -6.794  0.00  0.00     0.000 A 
ATOM     23  C   LIG d   1      20.469   6.608  -6.020  0.00  0.00     0.001 A 
ATOM     24  C   LIG d   1      20.404   5.218  -5.912  0.00  0.00     0.009 A 
ENDBRANCH  18  19
ENDBRANCH  15  18
ENDBRANCH  14  15
ENDBRANCH  13  14
ENDBRANCH  12  13
ENDBRANCH  10  12
ENDBRANCH   3  10
BRANCH   2  25
ATOM     25  C   LIG d   1      16.222  -3.428  -6.152  0.00  0.00    -0.042 A 
ATOM     26  C   LIG d   1      16.442  -3.255  -4.776  0.00  0.00     0.044 A 
ATOM     27  C   LIG d   1      16.451  -4.371  -3.929  0.00  0.00     0.103 A 
ATOM     28  C   LIG d   1      16.249  -5.663  -4.430  0.00  0.00     0.036 A 
ATOM     29  C   LIG d   1      16.023  -5.836  -5.794  0.00  0.00     0.003 A 
ATOM     30  C   LIG d   1      16.005  -4.728  -6.647  0.00  0.00     0.008 A 
BRANCH  27  31
ATOM     31  N   LIG d   1      16.709  -4.189  -2.501  0.00  0.00    -0.116 N 
ATOM     32  O   LIG d   1      15.877  -4.640  -1.704  0.00  0.00    -0.532 OA
ATOM     33  O   LIG d   1      17.721  -3.544  -2.188  0.00  0.00    -0.532 OA
ENDBRANCH  27  31
ENDBRANCH   2  25
BRANCH   4  34
ATOM     34  C   LIG d   1      13.643  -1.916  -6.944  0.00  0.00     0.291 C 
ATOM     35  O   LIG d   1      12.899  -2.809  -6.571  0.00  0.00    -0.260 OA
BRANCH  34  36
ATOM     36  O   LIG d   1      13.514  -0.595  -6.663  0.00  0.00    -0.323 OA
ATOM     37  C   LIG d   1      13.424  -0.302  -5.267  0.00  0.00     0.213 C 
ENDBRANCH  34  36
ENDBRANCH   4  34
TORSDOF 11
ENDMDL
MODEL 6
REMARK VINA RESULT:      -6.4      1.907      2.834
REMARK  11 active torsions:
REMARK  status: ('A' for Active; 'I' for Inactive)
REMARK    1  A    between atoms: O_1  and  C_16 
REMARK    2  A    between atoms: O_1  and  C_23 
REMARK    3  A    between atoms: O_2  and  C_20 
REMARK    4  A    between atoms: N_8  and  C_22 
REMARK    5  A    between atoms: N_8  and  C_26 
REMARK    6  A    between atoms: N_9  and  C_24 
REMARK    7  A    between atoms: C_10  and  C_13 
REMARK    8  A    between atoms: C_11  and  C_16 
REMARK    9  A    between atoms: C_12  and  C_20 
REMARK   10  A    between atoms: C_22  and  C_23 
REMARK   11  A    between atoms: C_26  and  C_28 
ROOT
ATOM      1  N   LIG d   1       6.062   1.950  20.023  0.00  0.00    -0.362 N 
ATOM      2  C   LIG d   1       7.324  -0.233  21.299  0.00  0.00     0.101 C 
ATOM      3  C   LIG d   1       6.607   0.883  22.064  0.00  0.00     0.052 C 
ATOM      4  C   LIG d   1       7.132  -0.148  19.793  0.00  0.00     0.052 C 
ATOM      5  C   LIG d   1       6.010   1.907  21.409  0.00  0.00     0.018 C 
ATOM      6  C   LIG d   1       6.545   0.926  19.222  0.00  0.00     0.018 C 
ATOM      7  C   LIG d   1       5.231   3.015  22.069  0.00  0.00     0.069 C 
ATOM      8  C   LIG d   1       6.332   1.079  17.736  0.00  0.00     0.069 C 
ATOM      9  H   LIG d   1       5.546   2.695  19.556  0.00  0.00     0.165 HD
ENDROOT
BRANCH   3  10
ATOM     10  C   LIG d   1       6.649   0.721  23.533  0.00  0.00     0.292 C 
ATOM     11  O   LIG d   1       6.227  -0.262  24.125  0.00  0.00    -0.259 OA
BRANCH  10  12
ATOM     12  O   LIG d   1       7.411   1.686  24.117  0.00  0.00    -0.316 OA
BRANCH  12  13
ATOM     13  C   LIG d   1       7.660   1.469  25.516  0.00  0.00     0.206 C 
BRANCH  13  14
ATOM     14  C   LIG d   1       9.109   1.002  25.716  0.00  0.00     0.261 C 
BRANCH  14  15
ATOM     15  N   LIG d   1       9.217  -0.342  26.406  0.00  0.00    -0.069 N 
ATOM     16  C   LIG d   1       7.911  -0.770  27.033  0.00  0.00     0.270 C 
ATOM     17  H   LIG d   1       9.911  -0.277  27.160  0.00  0.00     0.279 HD
BRANCH  15  18
ATOM     18  C   LIG d   1       9.742  -1.384  25.431  0.00  0.00     0.273 C 
BRANCH  18  19
ATOM     19  C   LIG d   1       9.047  -2.715  25.506  0.00  0.00    -0.033 A 
ATOM     20  C   LIG d   1       8.073  -3.052  24.552  0.00  0.00     0.009 A 
ATOM     21  C   LIG d   1       7.433  -4.289  24.602  0.00  0.00     0.001 A 
ATOM     22  C   LIG d   1       7.755  -5.203  25.603  0.00  0.00     0.000 A 
ATOM     23  C   LIG d   1       8.724  -4.883  26.552  0.00  0.00     0.001 A 
ATOM     24  C   LIG d   1       9.371  -3.647  26.504  0.00  0.00     0.009 A 
ENDBRANCH  18  19
ENDBRANCH  15  18
ENDBRANCH  14  15
ENDBRANCH  13  14
ENDBRANCH  12  13
ENDBRANCH  10  12
ENDBRANCH   3  10
BRANCH   2  25
ATOM     25  C   LIG d   1       8.821  -0.258  21.649  0.00  0.00    -0.042 A 
ATOM     26  C   LIG d   1       9.481   0.931  21.999  0.00  0.00     0.044 A 
ATOM     27  C   LIG d   1      10.839   0.897  22.341  0.00  0.00     0.103 A 
ATOM     28  C   LIG d   1      11.558  -0.304  22.335  0.00  0.00     0.036 A 
ATOM     29  C   LIG d   1      10.904  -1.487  21.995  0.00  0.00     0.003 A 
ATOM     30  C   LIG d   1       9.547  -1.465  21.659  0.00  0.00     0.008 A 
BRANCH  27  31
ATOM     31  N   LIG d   1      11.528   2.142  22.677  0.00  0.00    -0.116 N 
ATOM     32  O   LIG d   1      10.832   3.129  22.949  0.00  0.00    -0.532 OA
ATOM     33  O   LIG d   1      12.766   2.138  22.612  0.00  0.00    -0.532 OA
ENDBRANCH  27  31
ENDBRANCH   2  25
BRANCH   4  34
ATOM     34  C   LIG d   1       7.635  -1.281  18.982  0.00  0.00     0.291 C 
ATOM     35  O   LIG d   1       8.619  -1.237  18.263  0.00  0.00    -0.260 OA
BRANCH  34  36
ATOM     36  O   LIG d   1       6.827  -2.355  19.170  0.00  0.00    -0.323 OA
ATOM     37  C   LIG d   1       7.497  -3.613  19.078  0.00  0.00     0.213 C 
ENDBRANCH  34  36
ENDBRANCH   4  34
TORSDOF 11
ENDMDL
MODEL 7
REMARK VINA RESULT:      -6.3     28.257     32.086
REMARK  11 active torsions:
REMARK  status: ('A' for Active; 'I' for Inactive)
REMARK    1  A    between atoms: O_1  and  C_16 
REMARK    2  A    between atoms: O_1  and  C_23 
REMARK    3  A    between atoms: O_2  and  C_20 
REMARK    4  A    between atoms: N_8  and  C_22 
REMARK    5  A    between atoms: N_8  and  C_26 
REMARK    6  A    between atoms: N_9  and  C_24 
REMARK    7  A    between atoms: C_10  and  C_13 
REMARK    8  A    between atoms: C_11  and  C_16 
REMARK    9  A    between atoms: C_12  and  C_20 
REMARK   10  A    between atoms: C_22  and  C_23 
REMARK   11  A    between atoms: C_26  and  C_28 
ROOT
ATOM      1  N   LIG d   1      15.931  -5.709  -7.517  0.00  0.00    -0.362 N 
ATOM      2  C   LIG d   1      14.728  -3.538  -8.867  0.00  0.00     0.101 C 
ATOM      3  C   LIG d   1      14.099  -4.217  -7.647  0.00  0.00     0.052 C 
ATOM      4  C   LIG d   1      16.139  -4.022  -9.164  0.00  0.00     0.052 C 
ATOM      5  C   LIG d   1      14.716  -5.251  -7.029  0.00  0.00     0.018 C 
ATOM      6  C   LIG d   1      16.667  -5.080  -8.512  0.00  0.00     0.018 C 
ATOM      7  C   LIG d   1      14.207  -5.942  -5.790  0.00  0.00     0.069 C 
ATOM      8  C   LIG d   1      18.054  -5.619  -8.763  0.00  0.00     0.069 C 
ATOM      9  H   LIG d   1      16.404  -6.443  -6.991  0.00  0.00     0.165 HD
ENDROOT
BRANCH   3  10
ATOM     10  C   LIG d   1      12.796  -3.642  -7.251  0.00  0.00     0.292 C 
ATOM     11  O   LIG d   1      11.732  -3.929  -7.781  0.00  0.00    -0.259 OA
BRANCH  10  12
ATOM     12  O   LIG d   1      12.897  -2.935  -6.092  0.00  0.00    -0.316 OA
BRANCH  12  13
ATOM     13  C   LIG d   1      13.659  -1.722  -6.209  0.00  0.00     0.206 C 
BRANCH  13  14
ATOM     14  C   LIG d   1      14.618  -1.597  -5.018  0.00  0.00     0.261 C 
BRANCH  14  15
ATOM     15  N   LIG d   1      15.733  -2.623  -5.034  0.00  0.00    -0.069 N 
ATOM     16  C   LIG d   1      16.882  -2.206  -5.921  0.00  0.00     0.270 C 
ATOM     17  H   LIG d   1      15.367  -3.509  -5.404  0.00  0.00     0.279 HD
BRANCH  15  18
ATOM     18  C   LIG d   1      16.193  -2.911  -3.614  0.00  0.00     0.273 C 
BRANCH  18  19
ATOM     19  C   LIG d   1      17.402  -3.800  -3.518  0.00  0.00    -0.033 A 
ATOM     20  C   LIG d   1      18.589  -3.310  -2.951  0.00  0.00     0.009 A 
ATOM     21  C   LIG d   1      19.712  -4.129  -2.842  0.00  0.00     0.001 A 
ATOM     22  C   LIG d   1      19.664  -5.444  -3.298  0.00  0.00     0.000 A 
ATOM     23  C   LIG d   1      18.490  -5.944  -3.858  0.00  0.00     0.001 A 
ATOM     24  C   LIG d   1      17.361  -5.130  -3.965  0.00  0.00     0.009 A 
ENDBRANCH  18  19
ENDBRANCH  15  18
ENDBRANCH  14  15
ENDBRANCH  13  14
ENDBRANCH  12  13
ENDBRANCH  10  12
ENDBRANCH   3  10
BRANCH   2  25
ATOM     25  C   LIG d   1      13.831  -3.703 -10.106  0.00  0.00    -0.042 A 
ATOM     26  C   LIG d   1      13.477  -2.580 -10.871  0.00  0.00     0.044 A 
ATOM     27  C   LIG d   1      12.680  -2.741 -12.012  0.00  0.00     0.103 A 
ATOM     28  C   LIG d   1      12.223  -4.005 -12.405  0.00  0.00     0.036 A 
ATOM     29  C   LIG d   1      12.580  -5.122 -11.651  0.00  0.00     0.003 A 
ATOM     30  C   LIG d   1      13.380  -4.973 -10.515  0.00  0.00     0.008 A 
BRANCH  27  31
ATOM     31  N   LIG d   1      12.290  -1.565 -12.788  0.00  0.00    -0.116 N 
ATOM     32  O   LIG d   1      11.317  -1.674 -13.547  0.00  0.00    -0.532 OA
ATOM     33  O   LIG d   1      12.996  -0.553 -12.674  0.00  0.00    -0.532 OA
ENDBRANCH  27  31
ENDBRANCH   2  25
BRANCH   4  34
ATOM     34  C   LIG d   1      16.896  -3.298 -10.211  0.00  0.00     0.291 C 
ATOM     35  O   LIG d   1      17.126  -3.734 -11.327  0.00  0.00    -0.260 OA
BRANCH  34  36
ATOM     36  O   LIG d   1      17.285  -2.093  -9.725  0.00  0.00    -0.323 OA
ATOM     37  C   LIG d   1      18.701  -1.937  -9.616  0.00  0.00     0.213 C 
ENDBRANCH  34  36
ENDBRANCH   4  34
TORSDOF 11
ENDMDL
MODEL 8
REMARK VINA RESULT:      -6.2     29.568     32.207
REMARK  11 active torsions:
REMARK  status: ('A' for Active; 'I' for Inactive)
REMARK    1  A    between atoms: O_1  and  C_16 
REMARK    2  A    between atoms: O_1  and  C_23 
REMARK    3  A    between atoms: O_2  and  C_20 
REMARK    4  A    between atoms: N_8  and  C_22 
REMARK    5  A    between atoms: N_8  and  C_26 
REMARK    6  A    between atoms: N_9  and  C_24 
REMARK    7  A    between atoms: C_10  and  C_13 
REMARK    8  A    between atoms: C_11  and  C_16 
REMARK    9  A    between atoms: C_12  and  C_20 
REMARK   10  A    between atoms: C_22  and  C_23 
REMARK   11  A    between atoms: C_26  and  C_28 
ROOT
ATOM      1  N   LIG d   1      21.895  10.269  -1.419  0.00  0.00    -0.362 N 
ATOM      2  C   LIG d   1      22.206   7.555  -2.141  0.00  0.00     0.101 C 
ATOM      3  C   LIG d   1      23.063   8.241  -1.073  0.00  0.00     0.052 C 
ATOM      4  C   LIG d   1      21.059   8.420  -2.637  0.00  0.00     0.052 C 
ATOM      5  C   LIG d   1      22.874   9.543  -0.756  0.00  0.00     0.018 C 
ATOM      6  C   LIG d   1      20.961   9.721  -2.287  0.00  0.00     0.018 C 
ATOM      7  C   LIG d   1      23.624  10.287   0.318  0.00  0.00     0.069 C 
ATOM      8  C   LIG d   1      19.856  10.638  -2.750  0.00  0.00     0.069 C 
ATOM      9  H   LIG d   1      21.730  11.227  -1.112  0.00  0.00     0.165 HD
ENDROOT
BRANCH   3  10
ATOM     10  C   LIG d   1      24.080   7.356  -0.467  0.00  0.00     0.292 C 
ATOM     11  O   LIG d   1      23.838   6.247  -0.011  0.00  0.00    -0.259 OA
BRANCH  10  12
ATOM     12  O   LIG d   1      25.339   7.827  -0.679  0.00  0.00    -0.316 OA
BRANCH  12  13
ATOM     13  C   LIG d   1      26.222   6.880  -1.302  0.00  0.00     0.206 C 
BRANCH  13  14
ATOM     14  C   LIG d   1      27.219   7.618  -2.205  0.00  0.00     0.261 C 
BRANCH  14  15
ATOM     15  N   LIG d   1      27.535   9.022  -1.730  0.00  0.00    -0.069 N 
ATOM     16  C   LIG d   1      28.821   9.082  -0.940  0.00  0.00     0.270 C 
ATOM     17  H   LIG d   1      26.781   9.343  -1.112  0.00  0.00     0.279 HD
BRANCH  15  18
ATOM     18  C   LIG d   1      27.554   9.977  -2.912  0.00  0.00     0.273 C 
BRANCH  18  19
ATOM     19  C   LIG d   1      26.740  11.227  -2.718  0.00  0.00    -0.033 A 
ATOM     20  C   LIG d   1      27.375  12.431  -2.376  0.00  0.00     0.009 A 
ATOM     21  C   LIG d   1      26.632  13.599  -2.208  0.00  0.00     0.001 A 
ATOM     22  C   LIG d   1      25.250  13.579  -2.377  0.00  0.00     0.000 A 
ATOM     23  C   LIG d   1      24.608  12.391  -2.722  0.00  0.00     0.001 A 
ATOM     24  C   LIG d   1      25.348  11.219  -2.897  0.00  0.00     0.009 A 
ENDBRANCH  18  19
ENDBRANCH  15  18
ENDBRANCH  14  15
ENDBRANCH  13  14
ENDBRANCH  12  13
ENDBRANCH  10  12
ENDBRANCH   3  10
BRANCH   2  25
ATOM     25  C   LIG d   1      23.075   7.087  -3.320  0.00  0.00    -0.042 A 
ATOM     26  C   LIG d   1      23.939   7.992  -3.958  0.00  0.00     0.044 A 
ATOM     27  C   LIG d   1      24.747   7.553  -5.015  0.00  0.00     0.103 A 
ATOM     28  C   LIG d   1      24.705   6.225  -5.456  0.00  0.00     0.036 A 
ATOM     29  C   LIG d   1      23.854   5.323  -4.820  0.00  0.00     0.003 A 
ATOM     30  C   LIG d   1      23.050   5.749  -3.759  0.00  0.00     0.008 A 
BRANCH  27  31
ATOM     31  N   LIG d   1      25.623   8.506  -5.695  0.00  0.00    -0.116 N 
ATOM     32  O   LIG d   1      25.103   9.516  -6.185  0.00  0.00    -0.532 OA
ATOM     33  O   LIG d   1      26.824   8.206  -5.782  0.00  0.00    -0.532 OA
ENDBRANCH  27  31
ENDBRANCH   2  25
BRANCH   4  34
ATOM     34  C   LIG d   1      20.069   7.782  -3.535  0.00  0.00     0.291 C 
ATOM     35  O   LIG d   1      19.096   7.150  -3.159  0.00  0.00    -0.260 OA
BRANCH  34  36
ATOM     36  O   LIG d   1      20.426   8.012  -4.824  0.00  0.00    -0.323 OA
ATOM     37  C   LIG d   1      20.091   6.951  -5.721  0.00  0.00     0.213 C 
ENDBRANCH  34  36
ENDBRANCH   4  34
TORSDOF 11
ENDMDL
MODEL 9
REMARK VINA RESULT:      -6.2      2.126      6.235
REMARK  11 active torsions:
REMARK  status: ('A' for Active; 'I' for Inactive)
REMARK    1  A    between atoms: O_1  and  C_16 
REMARK    2  A    between atoms: O_1  and  C_23 
REMARK    3  A    between atoms: O_2  and  C_20 
REMARK    4  A    between atoms: N_8  and  C_22 
REMARK    5  A    between atoms: N_8  and  C_26 
REMARK    6  A    between atoms: N_9  and  C_24 
REMARK    7  A    between atoms: C_10  and  C_13 
REMARK    8  A    between atoms: C_11  and  C_16 
REMARK    9  A    between atoms: C_12  and  C_20 
REMARK   10  A    between atoms: C_22  and  C_23 
REMARK   11  A    between atoms: C_26  and  C_28 
ROOT
ATOM      1  N   LIG d   1      10.298   0.414  25.637  0.00  0.00    -0.362 N 
ATOM      2  C   LIG d   1       8.902  -0.912  23.569  0.00  0.00     0.101 C 
ATOM      3  C   LIG d   1       8.226  -0.416  24.851  0.00  0.00     0.052 C 
ATOM      4  C   LIG d   1      10.348  -0.460  23.439  0.00  0.00     0.052 C 
ATOM      5  C   LIG d   1       8.935   0.221  25.813  0.00  0.00     0.018 C 
ATOM      6  C   LIG d   1      10.986   0.149  24.462  0.00  0.00     0.018 C 
ATOM      7  C   LIG d   1       8.350   0.797  27.076  0.00  0.00     0.069 C 
ATOM      8  C   LIG d   1      12.420   0.613  24.404  0.00  0.00     0.069 C 
ATOM      9  H   LIG d   1      10.791   0.956  26.346  0.00  0.00     0.165 HD
ENDROOT
BRANCH   3  10
ATOM     10  C   LIG d   1       6.778  -0.709  24.913  0.00  0.00     0.292 C 
ATOM     11  O   LIG d   1       6.255  -1.393  25.781  0.00  0.00    -0.259 OA
BRANCH  10  12
ATOM     12  O   LIG d   1       6.079   0.052  24.027  0.00  0.00    -0.316 OA
BRANCH  12  13
ATOM     13  C   LIG d   1       5.538   1.258  24.590  0.00  0.00     0.206 C 
BRANCH  13  14
ATOM     14  C   LIG d   1       4.439   1.810  23.671  0.00  0.00     0.261 C 
BRANCH  14  15
ATOM     15  N   LIG d   1       4.918   2.925  22.764  0.00  0.00    -0.069 N 
ATOM     16  C   LIG d   1       4.782   4.285  23.407  0.00  0.00     0.270 C 
ATOM     17  H   LIG d   1       4.346   2.931  21.911  0.00  0.00     0.279 HD
BRANCH  15  18
ATOM     18  C   LIG d   1       6.346   2.652  22.318  0.00  0.00     0.273 C 
BRANCH  18  19
ATOM     19  C   LIG d   1       6.464   2.010  20.963  0.00  0.00    -0.033 A 
ATOM     20  C   LIG d   1       7.489   1.083  20.714  0.00  0.00     0.009 A 
ATOM     21  C   LIG d   1       7.600   0.469  19.467  0.00  0.00     0.001 A 
ATOM     22  C   LIG d   1       6.692   0.773  18.456  0.00  0.00     0.000 A 
ATOM     23  C   LIG d   1       5.667   1.687  18.692  0.00  0.00     0.001 A 
ATOM     24  C   LIG d   1       5.549   2.301  19.940  0.00  0.00     0.009 A 
ENDBRANCH  18  19
ENDBRANCH  15  18
ENDBRANCH  14  15
ENDBRANCH  13  14
ENDBRANCH  12  13
ENDBRANCH  10  12
ENDBRANCH   3  10
BRANCH   2  25
ATOM     25  C   LIG d   1       8.805  -2.443  23.460  0.00  0.00    -0.042 A 
ATOM     26  C   LIG d   1       9.225  -3.251  24.528  0.00  0.00     0.044 A 
ATOM     27  C   LIG d   1       9.111  -4.644  24.432  0.00  0.00     0.103 A 
ATOM     28  C   LIG d   1       8.589  -5.251  23.283  0.00  0.00     0.036 A 
ATOM     29  C   LIG d   1       8.164  -4.451  22.225  0.00  0.00     0.003 A 
ATOM     30  C   LIG d   1       8.267  -3.060  22.313  0.00  0.00     0.008 A 
BRANCH  27  31
ATOM     31  N   LIG d   1       9.577  -5.483  25.536  0.00  0.00    -0.116 N 
ATOM     32  O   LIG d   1      10.767  -5.824  25.535  0.00  0.00    -0.532 OA
ATOM     33  O   LIG d   1       8.732  -5.841  26.369  0.00  0.00    -0.532 OA
ENDBRANCH  27  31
ENDBRANCH   2  25
BRANCH   4  34
ATOM     34  C   LIG d   1      11.029  -0.737  22.153  0.00  0.00     0.291 C 
ATOM     35  O   LIG d   1      10.765  -0.190  21.095  0.00  0.00    -0.260 OA
BRANCH  34  36
ATOM     36  O   LIG d   1      11.978  -1.687  22.349  0.00  0.00    -0.323 OA
ATOM     37  C   LIG d   1      13.278  -1.319  21.886  0.00  0.00     0.213 C 
ENDBRANCH  34  36
ENDBRANCH   4  34
TORSDOF 11
ENDMDL
