MODEL 1
REMARK VINA RESULT:      -8.1      0.000      0.000
REMARK  10 active torsions:
REMARK  status: ('A' for Active; 'I' for Inactive)
REMARK       I    between atoms: N_6  and  C_20 
REMARK    1  A    between atoms: N_6  and  C_21 
REMARK    2  A    between atoms: N_6  and  C_24 
REMARK    3  A    between atoms: N_7  and  C_14 
REMARK    4  A    between atoms: N_7  and  C_22 
REMARK    5  A    between atoms: N_9  and  C_35 
REMARK    6  A    between atoms: C_12  and  C_14 
REMARK    7  A    between atoms: C_15  and  C_20 
REMARK    8  A    between atoms: C_21  and  C_23 
REMARK    9  A    between atoms: C_23  and  C_31 
REMARK   10  A    between atoms: C_30  and  C_35 
ROOT
ATOM      1  N   LIG d   1      19.824   1.267  -7.038  0.00  0.00    -0.337 N 
ATOM      2  N   LIG d   1      18.089   2.068  -5.913  0.00  0.00    -0.232 NA
ATOM      3  C   LIG d   1      18.830   0.326  -7.176  0.00  0.00     0.064 A 
ATOM      4  C   LIG d   1      19.355   2.274  -6.223  0.00  0.00     0.120 A 
ATOM      5  C   LIG d   1      17.745   0.873  -6.496  0.00  0.00     0.086 A 
ATOM      6  C   LIG d   1      16.428  -1.055  -7.114  0.00  0.00     0.035 A 
ATOM      7  C   LIG d   1      16.515   0.198  -6.485  0.00  0.00     0.051 A 
ATOM      8  C   LIG d   1      18.764  -0.908  -7.834  0.00  0.00     0.033 A 
ATOM      9  C   LIG d   1      17.542  -1.587  -7.784  0.00  0.00     0.019 A 
ATOM     10  C   LIG d   1      21.122   1.228  -7.667  0.00  0.00     0.158 C 
ENDROOT
BRANCH   4  11
ATOM     11  C   LIG d   1      20.170   3.455  -5.778  0.00  0.00     0.171 C 
BRANCH  11  12
ATOM     12  N   LIG d   1      19.658   4.723  -6.294  0.00  0.00    -0.286 NA
ATOM     13  H   LIG d   1      18.744   4.564  -6.724  0.00  0.00     0.128 HD
BRANCH  12  14
ATOM     14  C   LIG d   1      19.641   5.840  -5.450  0.00  0.00     0.008 A 
ATOM     15  C   LIG d   1      18.499   6.257  -4.754  0.00  0.00     0.024 A 
ATOM     16  C   LIG d   1      18.547   7.331  -3.855  0.00  0.00     0.017 A 
ATOM     17  C   LIG d   1      19.753   7.997  -3.614  0.00  0.00     0.009 A 
ATOM     18  C   LIG d   1      20.909   7.556  -4.260  0.00  0.00     0.017 A 
ATOM     19  C   LIG d   1      20.851   6.484  -5.157  0.00  0.00     0.024 A 
BRANCH  17  20
ATOM     20  C   LIG d   1      19.809   9.153  -2.687  0.00  0.00     0.123 C 
ATOM     21  N   LIG d   1      20.005  10.358  -3.180  0.00  0.00    -0.284 NA
ATOM     22  H   LIG d   1      20.034  11.116  -2.488  0.00  0.00     0.188 HD
BRANCH  20  23
ATOM     23  N   LIG d   1      19.655   9.033  -1.427  0.00  0.00    -0.384 N 
ATOM     24  H   LIG d   1      19.502   9.884  -0.897  0.00  0.00     0.157 HD
ATOM     25  H   LIG d   1      19.633   8.129  -0.973  0.00  0.00     0.157 HD
ENDBRANCH  20  23
ENDBRANCH  17  20
ENDBRANCH  12  14
ENDBRANCH  11  12
ENDBRANCH   4  11
BRANCH   6  26
ATOM     26  C   LIG d   1      15.139  -1.806  -7.203  0.00  0.00     0.259 C 
ATOM     27  O   LIG d   1      14.543  -1.739  -8.284  0.00  0.00    -0.267 OA
ATOM     28  N   LIG d   1      14.608  -2.449  -6.076  0.00  0.00    -0.298 N 
BRANCH  28  29
ATOM     29  C   LIG d   1      13.167  -2.754  -6.099  0.00  0.00     0.144 C 
BRANCH  29  30
ATOM     30  C   LIG d   1      12.868  -4.217  -6.406  0.00  0.00     0.133 C 
BRANCH  30  31
ATOM     31  C   LIG d   1      12.682  -4.506  -7.886  0.00  0.00     0.174 C 
ATOM     32  O   LIG d   1      13.604  -5.186  -8.418  0.00  0.00    -0.648 OA
ATOM     33  O   LIG d   1      11.620  -4.065  -8.409  0.00  0.00    -0.648 OA
ENDBRANCH  30  31
ENDBRANCH  29  30
ENDBRANCH  28  29
BRANCH  28  34
ATOM     34  C   LIG d   1      15.435  -3.104  -5.115  0.00  0.00     0.132 A 
ATOM     35  N   LIG d   1      15.569  -2.535  -3.891  0.00  0.00    -0.243 NA
ATOM     36  C   LIG d   1      16.361  -3.145  -2.982  0.00  0.00     0.119 A 
ATOM     37  C   LIG d   1      17.054  -4.316  -3.222  0.00  0.00     0.019 A 
ATOM     38  C   LIG d   1      16.918  -4.897  -4.472  0.00  0.00     0.005 A 
ATOM     39  C   LIG d   1      16.104  -4.287  -5.426  0.00  0.00     0.051 A 
ENDBRANCH  28  34
ENDBRANCH   6  26
TORSDOF 10
ENDMDL
MODEL 2
REMARK VINA RESULT:      -7.4     18.144     22.903
REMARK  10 active torsions:
REMARK  status: ('A' for Active; 'I' for Inactive)
REMARK       I    between atoms: N_6  and  C_20 
REMARK    1  A    between atoms: N_6  and  C_21 
REMARK    2  A    between atoms: N_6  and  C_24 
REMARK    3  A    between atoms: N_7  and  C_14 
REMARK    4  A    between atoms: N_7  and  C_22 
REMARK    5  A    between atoms: N_9  and  C_35 
REMARK    6  A    between atoms: C_12  and  C_14 
REMARK    7  A    between atoms: C_15  and  C_20 
REMARK    8  A    between atoms: C_21  and  C_23 
REMARK    9  A    between atoms: C_23  and  C_31 
REMARK   10  A    between atoms: C_30  and  C_35 
ROOT
ATOM      1  N   LIG d   1       9.439  16.151   2.009  0.00  0.00    -0.337 N 
ATOM      2  N   LIG d   1       7.366  16.854   2.365  0.00  0.00    -0.232 NA
ATOM      3  C   LIG d   1       9.297  17.282   1.238  0.00  0.00     0.064 A 
ATOM      4  C   LIG d   1       8.235  15.896   2.628  0.00  0.00     0.120 A 
ATOM      5  C   LIG d   1       8.004  17.721   1.512  0.00  0.00     0.086 A 
ATOM      6  C   LIG d   1       8.366  19.600   0.038  0.00  0.00     0.035 A 
ATOM      7  C   LIG d   1       7.534  18.911   0.936  0.00  0.00     0.051 A 
ATOM      8  C   LIG d   1      10.157  17.963   0.369  0.00  0.00     0.033 A 
ATOM      9  C   LIG d   1       9.662  19.128  -0.227  0.00  0.00     0.019 A 
ATOM     10  C   LIG d   1      10.649  15.383   2.173  0.00  0.00     0.158 C 
ENDROOT
BRANCH   4  11
ATOM     11  C   LIG d   1       7.966  14.706   3.503  0.00  0.00     0.171 C 
BRANCH  11  12
ATOM     12  N   LIG d   1       7.890  13.455   2.750  0.00  0.00    -0.286 NA
ATOM     13  H   LIG d   1       8.802  13.263   2.329  0.00  0.00     0.128 HD
BRANCH  12  14
ATOM     14  C   LIG d   1       7.363  12.319   3.376  0.00  0.00     0.008 A 
ATOM     15  C   LIG d   1       6.010  11.964   3.304  0.00  0.00     0.024 A 
ATOM     16  C   LIG d   1       5.538  10.773   3.875  0.00  0.00     0.017 A 
ATOM     17  C   LIG d   1       6.424   9.896   4.509  0.00  0.00     0.009 A 
ATOM     18  C   LIG d   1       7.783  10.212   4.540  0.00  0.00     0.017 A 
ATOM     19  C   LIG d   1       8.243  11.404   3.969  0.00  0.00     0.024 A 
BRANCH  17  20
ATOM     20  C   LIG d   1       5.932   8.648   5.142  0.00  0.00     0.123 C 
ATOM     21  N   LIG d   1       4.939   8.717   6.004  0.00  0.00    -0.284 NA
ATOM     22  H   LIG d   1       4.646   7.820   6.407  0.00  0.00     0.188 HD
BRANCH  20  23
ATOM     23  N   LIG d   1       6.420   7.502   4.872  0.00  0.00    -0.384 N 
ATOM     24  H   LIG d   1       6.410   6.810   5.612  0.00  0.00     0.157 HD
ATOM     25  H   LIG d   1       6.757   7.266   3.947  0.00  0.00     0.157 HD
ENDBRANCH  20  23
ENDBRANCH  17  20
ENDBRANCH  12  14
ENDBRANCH  11  12
ENDBRANCH   4  11
BRANCH   6  26
ATOM     26  C   LIG d   1       7.966  20.907  -0.566  0.00  0.00     0.259 C 
ATOM     27  O   LIG d   1       6.867  20.932  -1.131  0.00  0.00    -0.267 OA
ATOM     28  N   LIG d   1       8.852  21.993  -0.570  0.00  0.00    -0.298 N 
BRANCH  28  29
ATOM     29  C   LIG d   1       8.597  23.057  -1.557  0.00  0.00     0.144 C 
BRANCH  29  30
ATOM     30  C   LIG d   1       7.979  24.308  -0.944  0.00  0.00     0.133 C 
BRANCH  30  31
ATOM     31  C   LIG d   1       6.464  24.358  -1.051  0.00  0.00     0.174 C 
ATOM     32  O   LIG d   1       5.997  24.049  -2.183  0.00  0.00    -0.648 OA
ATOM     33  O   LIG d   1       5.843  24.672   0.003  0.00  0.00    -0.648 OA
ENDBRANCH  30  31
ENDBRANCH  29  30
ENDBRANCH  28  29
BRANCH  28  34
ATOM     34  C   LIG d   1       9.729  22.262   0.522  0.00  0.00     0.132 A 
ATOM     35  N   LIG d   1       9.197  22.339   1.768  0.00  0.00    -0.243 NA
ATOM     36  C   LIG d   1      10.022  22.606   2.803  0.00  0.00     0.119 A 
ATOM     37  C   LIG d   1      11.382  22.814   2.675  0.00  0.00     0.019 A 
ATOM     38  C   LIG d   1      11.926  22.737   1.404  0.00  0.00     0.005 A 
ATOM     39  C   LIG d   1      11.094  22.460   0.320  0.00  0.00     0.051 A 
ENDBRANCH  28  34
ENDBRANCH   6  26
TORSDOF 10
ENDMDL
MODEL 3
REMARK VINA RESULT:      -7.3     27.704     30.046
REMARK  10 active torsions:
REMARK  status: ('A' for Active; 'I' for Inactive)
REMARK       I    between atoms: N_6  and  C_20 
REMARK    1  A    between atoms: N_6  and  C_21 
REMARK    2  A    between atoms: N_6  and  C_24 
REMARK    3  A    between atoms: N_7  and  C_14 
REMARK    4  A    between atoms: N_7  and  C_22 
REMARK    5  A    between atoms: N_9  and  C_35 
REMARK    6  A    between atoms: C_12  and  C_14 
REMARK    7  A    between atoms: C_15  and  C_20 
REMARK    8  A    between atoms: C_21  and  C_23 
REMARK    9  A    between atoms: C_23  and  C_31 
REMARK   10  A    between atoms: C_30  and  C_35 
ROOT
ATOM      1  N   LIG d   1       6.537   4.214  23.761  0.00  0.00    -0.337 N 
ATOM      2  N   LIG d   1       8.315   4.680  22.519  0.00  0.00    -0.232 NA
ATOM      3  C   LIG d   1       6.731   3.107  22.968  0.00  0.00     0.064 A 
ATOM      4  C   LIG d   1       7.479   5.161  23.420  0.00  0.00     0.120 A 
ATOM      5  C   LIG d   1       7.873   3.412  22.230  0.00  0.00     0.086 A 
ATOM      6  C   LIG d   1       7.733   1.241  21.180  0.00  0.00     0.035 A 
ATOM      7  C   LIG d   1       8.408   2.462  21.347  0.00  0.00     0.051 A 
ATOM      8  C   LIG d   1       6.055   1.889  22.842  0.00  0.00     0.033 A 
ATOM      9  C   LIG d   1       6.578   0.966  21.930  0.00  0.00     0.019 A 
ATOM     10  C   LIG d   1       5.545   4.350  24.799  0.00  0.00     0.158 C 
ENDROOT
BRANCH   4  11
ATOM     11  C   LIG d   1       7.553   6.537  24.016  0.00  0.00     0.171 C 
BRANCH  11  12
ATOM     12  N   LIG d   1       8.726   7.285  23.568  0.00  0.00    -0.286 NA
ATOM     13  H   LIG d   1       8.430   8.207  23.239  0.00  0.00     0.128 HD
BRANCH  12  14
ATOM     14  C   LIG d   1       9.837   7.376  24.417  0.00  0.00     0.008 A 
ATOM     15  C   LIG d   1      10.946   6.526  24.321  0.00  0.00     0.024 A 
ATOM     16  C   LIG d   1      12.072   6.704  25.135  0.00  0.00     0.017 A 
ATOM     17  C   LIG d   1      12.121   7.761  26.050  0.00  0.00     0.009 A 
ATOM     18  C   LIG d   1      11.046   8.648  26.117  0.00  0.00     0.017 A 
ATOM     19  C   LIG d   1       9.924   8.460  25.301  0.00  0.00     0.024 A 
BRANCH  17  20
ATOM     20  C   LIG d   1      13.296   7.942  26.938  0.00  0.00     0.123 C 
ATOM     21  N   LIG d   1      14.007   9.046  26.840  0.00  0.00    -0.284 NA
ATOM     22  H   LIG d   1      14.806   9.110  27.481  0.00  0.00     0.188 HD
BRANCH  20  23
ATOM     23  N   LIG d   1      13.637   7.077  27.811  0.00  0.00    -0.384 N 
ATOM     24  H   LIG d   1      14.622   6.844  27.868  0.00  0.00     0.157 HD
ATOM     25  H   LIG d   1      12.972   6.675  28.457  0.00  0.00     0.157 HD
ENDBRANCH  20  23
ENDBRANCH  17  20
ENDBRANCH  12  14
ENDBRANCH  11  12
ENDBRANCH   4  11
BRANCH   6  26
ATOM     26  C   LIG d   1       8.272   0.154  20.309  0.00  0.00     0.259 C 
ATOM     27  O   LIG d   1       7.918   0.177  19.125  0.00  0.00    -0.267 OA
ATOM     28  N   LIG d   1       9.045  -0.881  20.855  0.00  0.00    -0.298 N 
BRANCH  28  29
ATOM     29  C   LIG d   1       9.144  -2.124  20.071  0.00  0.00     0.144 C 
BRANCH  29  30
ATOM     30  C   LIG d   1       8.023  -3.114  20.372  0.00  0.00     0.133 C 
BRANCH  30  31
ATOM     31  C   LIG d   1       7.357  -3.681  19.129  0.00  0.00     0.174 C 
ATOM     32  O   LIG d   1       6.649  -2.860  18.481  0.00  0.00    -0.648 OA
ATOM     33  O   LIG d   1       7.606  -4.891  18.869  0.00  0.00    -0.648 OA
ENDBRANCH  30  31
ENDBRANCH  29  30
ENDBRANCH  28  29
BRANCH  28  34
ATOM     34  C   LIG d   1       9.979  -0.656  21.910  0.00  0.00     0.132 A 
ATOM     35  N   LIG d   1      11.160  -0.061  21.604  0.00  0.00    -0.243 NA
ATOM     36  C   LIG d   1      12.052   0.142  22.598  0.00  0.00     0.119 A 
ATOM     37  C   LIG d   1      11.842  -0.225  23.913  0.00  0.00     0.019 A 
ATOM     38  C   LIG d   1      10.638  -0.832  24.226  0.00  0.00     0.005 A 
ATOM     39  C   LIG d   1       9.699  -1.050  23.217  0.00  0.00     0.051 A 
ENDBRANCH  28  34
ENDBRANCH   6  26
TORSDOF 10
ENDMDL
MODEL 4
REMARK VINA RESULT:      -7.3     28.852     31.762
REMARK  10 active torsions:
REMARK  status: ('A' for Active; 'I' for Inactive)
REMARK       I    between atoms: N_6  and  C_20 
REMARK    1  A    between atoms: N_6  and  C_21 
REMARK    2  A    between atoms: N_6  and  C_24 
REMARK    3  A    between atoms: N_7  and  C_14 
REMARK    4  A    between atoms: N_7  and  C_22 
REMARK    5  A    between atoms: N_9  and  C_35 
REMARK    6  A    between atoms: C_12  and  C_14 
REMARK    7  A    between atoms: C_15  and  C_20 
REMARK    8  A    between atoms: C_21  and  C_23 
REMARK    9  A    between atoms: C_23  and  C_31 
REMARK   10  A    between atoms: C_30  and  C_35 
ROOT
ATOM      1  N   LIG d   1       9.787   0.729  23.494  0.00  0.00    -0.337 N 
ATOM      2  N   LIG d   1       7.667   0.301  23.003  0.00  0.00    -0.232 NA
ATOM      3  C   LIG d   1       9.330  -0.076  24.511  0.00  0.00     0.064 A 
ATOM      4  C   LIG d   1       8.738   0.978  22.635  0.00  0.00     0.120 A 
ATOM      5  C   LIG d   1       8.013  -0.360  24.157  0.00  0.00     0.086 A 
ATOM      6  C   LIG d   1       7.813  -1.737  26.131  0.00  0.00     0.035 A 
ATOM      7  C   LIG d   1       7.247  -1.225  24.952  0.00  0.00     0.051 A 
ATOM      8  C   LIG d   1       9.928  -0.593  25.666  0.00  0.00     0.033 A 
ATOM      9  C   LIG d   1       9.140  -1.425  26.469  0.00  0.00     0.019 A 
ATOM     10  C   LIG d   1      11.140   1.202  23.330  0.00  0.00     0.158 C 
ENDROOT
BRANCH   4  11
ATOM     11  C   LIG d   1       8.820   1.875  21.433  0.00  0.00     0.171 C 
BRANCH  11  12
ATOM     12  N   LIG d   1       7.989   1.410  20.324  0.00  0.00    -0.286 NA
ATOM     13  H   LIG d   1       7.975   2.126  19.594  0.00  0.00     0.128 HD
BRANCH  12  14
ATOM     14  C   LIG d   1       8.223   0.137  19.789  0.00  0.00     0.008 A 
ATOM     15  C   LIG d   1       9.305  -0.667  20.171  0.00  0.00     0.024 A 
ATOM     16  C   LIG d   1       9.456  -1.968  19.673  0.00  0.00     0.017 A 
ATOM     17  C   LIG d   1       8.506  -2.503  18.797  0.00  0.00     0.009 A 
ATOM     18  C   LIG d   1       7.395  -1.732  18.452  0.00  0.00     0.017 A 
ATOM     19  C   LIG d   1       7.254  -0.433  18.952  0.00  0.00     0.024 A 
BRANCH  17  20
ATOM     20  C   LIG d   1       8.671  -3.868  18.241  0.00  0.00     0.123 C 
ATOM     21  N   LIG d   1       9.473  -4.046  17.212  0.00  0.00    -0.284 NA
ATOM     22  H   LIG d   1       9.544  -5.013  16.874  0.00  0.00     0.188 HD
BRANCH  20  23
ATOM     23  N   LIG d   1       8.079  -4.886  18.731  0.00  0.00    -0.384 N 
ATOM     24  H   LIG d   1       8.368  -5.186  19.656  0.00  0.00     0.157 HD
ATOM     25  H   LIG d   1       7.320  -5.349  18.250  0.00  0.00     0.157 HD
ENDBRANCH  20  23
ENDBRANCH  17  20
ENDBRANCH  12  14
ENDBRANCH  11  12
ENDBRANCH   4  11
BRANCH   6  26
ATOM     26  C   LIG d   1       7.087  -2.715  26.996  0.00  0.00     0.259 C 
ATOM     27  O   LIG d   1       6.556  -2.255  28.013  0.00  0.00    -0.267 OA
ATOM     28  N   LIG d   1       7.116  -4.086  26.703  0.00  0.00    -0.298 N 
BRANCH  28  29
ATOM     29  C   LIG d   1       6.799  -5.010  27.806  0.00  0.00     0.144 C 
BRANCH  29  30
ATOM     30  C   LIG d   1       8.036  -5.532  28.527  0.00  0.00     0.133 C 
BRANCH  30  31
ATOM     31  C   LIG d   1       7.746  -6.656  29.507  0.00  0.00     0.174 C 
ATOM     32  O   LIG d   1       7.523  -7.781  28.979  0.00  0.00    -0.648 OA
ATOM     33  O   LIG d   1       7.789  -6.350  30.732  0.00  0.00    -0.648 OA
ENDBRANCH  30  31
ENDBRANCH  29  30
ENDBRANCH  28  29
BRANCH  28  34
ATOM     34  C   LIG d   1       7.091  -4.577  25.364  0.00  0.00     0.132 A 
ATOM     35  N   LIG d   1       5.887  -4.873  24.812  0.00  0.00    -0.243 NA
ATOM     36  C   LIG d   1       5.860  -5.350  23.548  0.00  0.00     0.119 A 
ATOM     37  C   LIG d   1       6.987  -5.565  22.778  0.00  0.00     0.019 A 
ATOM     38  C   LIG d   1       8.216  -5.264  23.341  0.00  0.00     0.005 A 
ATOM     39  C   LIG d   1       8.269  -4.768  24.643  0.00  0.00     0.051 A 
ENDBRANCH  28  34
ENDBRANCH   6  26
TORSDOF 10
ENDMDL
MODEL 5
REMARK VINA RESULT:      -7.1     28.694     32.585
REMARK  10 active torsions:
REMARK  status: ('A' for Active; 'I' for Inactive)
REMARK       I    between atoms: N_6  and  C_20 
REMARK    1  A    between atoms: N_6  and  C_21 
REMARK    2  A    between atoms: N_6  and  C_24 
REMARK    3  A    between atoms: N_7  and  C_14 
REMARK    4  A    between atoms: N_7  and  C_22 
REMARK    5  A    between atoms: N_9  and  C_35 
REMARK    6  A    between atoms: C_12  and  C_14 
REMARK    7  A    between atoms: C_15  and  C_20 
REMARK    8  A    between atoms: C_21  and  C_23 
REMARK    9  A    between atoms: C_23  and  C_31 
REMARK   10  A    between atoms: C_30  and  C_35 
ROOT
ATOM      1  N   LIG d   1       6.300  -4.287  25.662  0.00  0.00    -0.337 N 
ATOM      2  N   LIG d   1       7.191  -5.450  23.996  0.00  0.00    -0.232 NA
ATOM      3  C   LIG d   1       7.323  -3.507  25.175  0.00  0.00     0.064 A 
ATOM      4  C   LIG d   1       6.290  -5.473  24.961  0.00  0.00     0.120 A 
ATOM      5  C   LIG d   1       7.836  -4.242  24.108  0.00  0.00     0.086 A 
ATOM      6  C   LIG d   1       9.410  -2.462  23.679  0.00  0.00     0.035 A 
ATOM      7  C   LIG d   1       8.870  -3.709  23.325  0.00  0.00     0.051 A 
ATOM      8  C   LIG d   1       7.824  -2.250  25.533  0.00  0.00     0.033 A 
ATOM      9  C   LIG d   1       8.880  -1.747  24.766  0.00  0.00     0.019 A 
ATOM     10  C   LIG d   1       5.372  -3.915  26.702  0.00  0.00     0.158 C 
ENDROOT
BRANCH   4  11
ATOM     11  C   LIG d   1       5.360  -6.618  25.244  0.00  0.00     0.171 C 
BRANCH  11  12
ATOM     12  N   LIG d   1       4.974  -7.345  24.036  0.00  0.00    -0.286 NA
ATOM     13  H   LIG d   1       5.278  -8.318  24.119  0.00  0.00     0.128 HD
BRANCH  12  14
ATOM     14  C   LIG d   1       3.650  -7.257  23.586  0.00  0.00     0.008 A 
ATOM     15  C   LIG d   1       3.157  -6.161  22.868  0.00  0.00     0.024 A 
ATOM     16  C   LIG d   1       1.849  -6.150  22.364  0.00  0.00     0.017 A 
ATOM     17  C   LIG d   1       1.012  -7.256  22.549  0.00  0.00     0.009 A 
ATOM     18  C   LIG d   1       1.510  -8.376  23.216  0.00  0.00     0.017 A 
ATOM     19  C   LIG d   1       2.817  -8.376  23.717  0.00  0.00     0.024 A 
BRANCH  17  20
ATOM     20  C   LIG d   1      -0.383  -7.244  22.047  0.00  0.00     0.123 C 
ATOM     21  N   LIG d   1      -0.996  -8.390  21.835  0.00  0.00    -0.284 NA
ATOM     22  H   LIG d   1      -1.959  -8.313  21.487  0.00  0.00     0.188 HD
BRANCH  20  23
ATOM     23  N   LIG d   1      -1.026  -6.164  21.828  0.00  0.00    -0.384 N 
ATOM     24  H   LIG d   1      -1.107  -5.512  22.600  0.00  0.00     0.157 HD
ATOM     25  H   LIG d   1      -1.396  -5.935  20.916  0.00  0.00     0.157 HD
ENDBRANCH  20  23
ENDBRANCH  17  20
ENDBRANCH  12  14
ENDBRANCH  11  12
ENDBRANCH   4  11
BRANCH   6  26
ATOM     26  C   LIG d   1      10.467  -1.797  22.859  0.00  0.00     0.259 C 
ATOM     27  O   LIG d   1      11.637  -2.049  23.168  0.00  0.00    -0.267 OA
ATOM     28  N   LIG d   1      10.122  -0.862  21.873  0.00  0.00    -0.298 N 
BRANCH  28  29
ATOM     29  C   LIG d   1      11.176   0.074  21.443  0.00  0.00     0.144 C 
BRANCH  29  30
ATOM     30  C   LIG d   1      11.054   1.451  22.086  0.00  0.00     0.133 C 
BRANCH  30  31
ATOM     31  C   LIG d   1      12.329   1.927  22.761  0.00  0.00     0.174 C 
ATOM     32  O   LIG d   1      12.412   3.176  22.929  0.00  0.00    -0.648 OA
ATOM     33  O   LIG d   1      13.145   1.025  23.104  0.00  0.00    -0.648 OA
ENDBRANCH  30  31
ENDBRANCH  29  30
ENDBRANCH  28  29
BRANCH  28  34
ATOM     34  C   LIG d   1       8.959  -1.009  21.060  0.00  0.00     0.132 A 
ATOM     35  N   LIG d   1       8.947  -1.999  20.131  0.00  0.00    -0.243 NA
ATOM     36  C   LIG d   1       7.852  -2.134  19.351  0.00  0.00     0.119 A 
ATOM     37  C   LIG d   1       6.739  -1.321  19.432  0.00  0.00     0.019 A 
ATOM     38  C   LIG d   1       6.750  -0.310  20.379  0.00  0.00     0.005 A 
ATOM     39  C   LIG d   1       7.868  -0.152  21.198  0.00  0.00     0.051 A 
ENDBRANCH  28  34
ENDBRANCH   6  26
TORSDOF 10
ENDMDL
MODEL 6
REMARK VINA RESULT:      -6.9      6.529     10.955
REMARK  10 active torsions:
REMARK  status: ('A' for Active; 'I' for Inactive)
REMARK       I    between atoms: N_6  and  C_20 
REMARK    1  A    between atoms: N_6  and  C_21 
REMARK    2  A    between atoms: N_6  and  C_24 
REMARK    3  A    between atoms: N_7  and  C_14 
REMARK    4  A    between atoms: N_7  and  C_22 
REMARK    5  A    between atoms: N_9  and  C_35 
REMARK    6  A    between atoms: C_12  and  C_14 
REMARK    7  A    between atoms: C_15  and  C_20 
REMARK    8  A    between atoms: C_21  and  C_23 
REMARK    9  A    between atoms: C_23  and  C_31 
REMARK   10  A    between atoms: C_30  and  C_35 
ROOT
ATOM      1  N   LIG d   1      14.690  -2.232 -10.952  0.00  0.00    -0.337 N 
ATOM      2  N   LIG d   1      13.193  -2.069  -9.324  0.00  0.00    -0.232 NA
ATOM      3  C   LIG d   1      15.419  -2.189  -9.786  0.00  0.00     0.064 A 
ATOM      4  C   LIG d   1      13.356  -2.101 -10.633  0.00  0.00     0.120 A 
ATOM      5  C   LIG d   1      14.455  -2.127  -8.783  0.00  0.00     0.086 A 
ATOM      6  C   LIG d   1      16.219  -2.140  -7.133  0.00  0.00     0.035 A 
ATOM      7  C   LIG d   1      14.847  -2.135  -7.436  0.00  0.00     0.051 A 
ATOM      8  C   LIG d   1      16.791  -2.222  -9.513  0.00  0.00     0.033 A 
ATOM      9  C   LIG d   1      17.169  -2.192  -8.166  0.00  0.00     0.019 A 
ATOM     10  C   LIG d   1      15.223  -2.421 -12.279  0.00  0.00     0.158 C 
ENDROOT
BRANCH   4  11
ATOM     11  C   LIG d   1      12.245  -2.034 -11.641  0.00  0.00     0.171 C 
BRANCH  11  12
ATOM     12  N   LIG d   1      11.269  -3.110 -11.481  0.00  0.00    -0.286 NA
ATOM     13  H   LIG d   1      10.371  -2.807 -11.865  0.00  0.00     0.128 HD
BRANCH  12  14
ATOM     14  C   LIG d   1      11.605  -4.399 -11.914  0.00  0.00     0.008 A 
ATOM     15  C   LIG d   1      11.468  -5.537 -11.110  0.00  0.00     0.024 A 
ATOM     16  C   LIG d   1      11.737  -6.819 -11.610  0.00  0.00     0.017 A 
ATOM     17  C   LIG d   1      12.125  -6.988 -12.943  0.00  0.00     0.009 A 
ATOM     18  C   LIG d   1      12.212  -5.867 -13.770  0.00  0.00     0.017 A 
ATOM     19  C   LIG d   1      11.944  -4.592 -13.260  0.00  0.00     0.024 A 
BRANCH  17  20
ATOM     20  C   LIG d   1      12.440  -8.336 -13.475  0.00  0.00     0.123 C 
ATOM     21  N   LIG d   1      13.128  -8.437 -14.594  0.00  0.00    -0.284 NA
ATOM     22  H   LIG d   1      13.313  -9.396 -14.909  0.00  0.00     0.188 HD
BRANCH  20  23
ATOM     23  N   LIG d   1      12.088  -9.409 -12.883  0.00  0.00    -0.384 N 
ATOM     24  H   LIG d   1      11.316  -9.927 -13.287  0.00  0.00     0.157 HD
ATOM     25  H   LIG d   1      12.583  -9.764 -12.075  0.00  0.00     0.157 HD
ENDBRANCH  20  23
ENDBRANCH  17  20
ENDBRANCH  12  14
ENDBRANCH  11  12
ENDBRANCH   4  11
BRANCH   6  26
ATOM     26  C   LIG d   1      16.716  -2.215  -5.726  0.00  0.00     0.259 C 
ATOM     27  O   LIG d   1      16.458  -1.246  -5.004  0.00  0.00    -0.267 OA
ATOM     28  N   LIG d   1      17.520  -3.285  -5.309  0.00  0.00    -0.298 N 
BRANCH  28  29
ATOM     29  C   LIG d   1      18.339  -3.074  -4.104  0.00  0.00     0.144 C 
BRANCH  29  30
ATOM     30  C   LIG d   1      17.980  -4.016  -2.961  0.00  0.00     0.133 C 
BRANCH  30  31
ATOM     31  C   LIG d   1      16.617  -3.744  -2.347  0.00  0.00     0.174 C 
ATOM     32  O   LIG d   1      15.972  -4.772  -1.999  0.00  0.00    -0.648 OA
ATOM     33  O   LIG d   1      16.296  -2.528  -2.227  0.00  0.00    -0.648 OA
ENDBRANCH  30  31
ENDBRANCH  29  30
ENDBRANCH  28  29
BRANCH  28  34
ATOM     34  C   LIG d   1      17.312  -4.618  -5.776  0.00  0.00     0.132 A 
ATOM     35  N   LIG d   1      16.107  -5.197  -5.546  0.00  0.00    -0.243 NA
ATOM     36  C   LIG d   1      15.911  -6.463  -5.975  0.00  0.00     0.119 A 
ATOM     37  C   LIG d   1      16.866  -7.214  -6.631  0.00  0.00     0.019 A 
ATOM     38  C   LIG d   1      18.096  -6.624  -6.866  0.00  0.00     0.005 A 
ATOM     39  C   LIG d   1      18.322  -5.317  -6.435  0.00  0.00     0.051 A 
ENDBRANCH  28  34
ENDBRANCH   6  26
TORSDOF 10
ENDMDL
MODEL 7
REMARK VINA RESULT:      -6.9     18.097     22.528
REMARK  10 active torsions:
REMARK  status: ('A' for Active; 'I' for Inactive)
REMARK       I    between atoms: N_6  and  C_20 
REMARK    1  A    between atoms: N_6  and  C_21 
REMARK    2  A    between atoms: N_6  and  C_24 
REMARK    3  A    between atoms: N_7  and  C_14 
REMARK    4  A    between atoms: N_7  and  C_22 
REMARK    5  A    between atoms: N_9  and  C_35 
REMARK    6  A    between atoms: C_12  and  C_14 
REMARK    7  A    between atoms: C_15  and  C_20 
REMARK    8  A    between atoms: C_21  and  C_23 
REMARK    9  A    between atoms: C_23  and  C_31 
REMARK   10  A    between atoms: C_30  and  C_35 
ROOT
ATOM      1  N   LIG d   1       8.030  15.393   3.904  0.00  0.00    -0.337 N 
ATOM      2  N   LIG d   1       9.563  15.295   2.304  0.00  0.00    -0.232 NA
ATOM      3  C   LIG d   1       7.950  16.597   3.243  0.00  0.00     0.064 A 
ATOM      4  C   LIG d   1       9.052  14.659   3.342  0.00  0.00     0.120 A 
ATOM      5  C   LIG d   1       8.893  16.491   2.224  0.00  0.00     0.086 A 
ATOM      6  C   LIG d   1       8.268  18.696   1.461  0.00  0.00     0.035 A 
ATOM      7  C   LIG d   1       9.039  17.534   1.296  0.00  0.00     0.051 A 
ATOM      8  C   LIG d   1       7.149  17.732   3.415  0.00  0.00     0.033 A 
ATOM      9  C   LIG d   1       7.332  18.779   2.505  0.00  0.00     0.019 A 
ATOM     10  C   LIG d   1       7.170  14.955   4.975  0.00  0.00     0.158 C 
ENDROOT
BRANCH   4  11
ATOM     11  C   LIG d   1       9.498  13.312   3.831  0.00  0.00     0.171 C 
BRANCH  11  12
ATOM     12  N   LIG d   1       9.157  12.232   2.907  0.00  0.00    -0.286 NA
ATOM     13  H   LIG d   1       9.963  11.612   2.805  0.00  0.00     0.128 HD
BRANCH  12  14
ATOM     14  C   LIG d   1       7.976  11.510   3.116  0.00  0.00     0.008 A 
ATOM     15  C   LIG d   1       7.753  10.718   4.250  0.00  0.00     0.024 A 
ATOM     16  C   LIG d   1       6.524  10.077   4.461  0.00  0.00     0.017 A 
ATOM     17  C   LIG d   1       5.478  10.240   3.547  0.00  0.00     0.009 A 
ATOM     18  C   LIG d   1       5.668  11.071   2.441  0.00  0.00     0.017 A 
ATOM     19  C   LIG d   1       6.900  11.704   2.239  0.00  0.00     0.024 A 
BRANCH  17  20
ATOM     20  C   LIG d   1       4.183   9.544   3.744  0.00  0.00     0.123 C 
ATOM     21  N   LIG d   1       3.905   8.491   3.004  0.00  0.00    -0.284 NA
ATOM     22  H   LIG d   1       2.994   8.055   3.188  0.00  0.00     0.188 HD
BRANCH  20  23
ATOM     23  N   LIG d   1       3.331   9.912   4.619  0.00  0.00    -0.384 N 
ATOM     24  H   LIG d   1       3.048  10.885   4.606  0.00  0.00     0.157 HD
ATOM     25  H   LIG d   1       2.912   9.259   5.267  0.00  0.00     0.157 HD
ENDBRANCH  20  23
ENDBRANCH  17  20
ENDBRANCH  12  14
ENDBRANCH  11  12
ENDBRANCH   4  11
BRANCH   6  26
ATOM     26  C   LIG d   1       8.317  19.822   0.481  0.00  0.00     0.259 C 
ATOM     27  O   LIG d   1       7.376  19.893  -0.317  0.00  0.00    -0.267 OA
ATOM     28  N   LIG d   1       9.434  20.669   0.422  0.00  0.00    -0.298 N 
BRANCH  28  29
ATOM     29  C   LIG d   1       9.629  21.428  -0.825  0.00  0.00     0.144 C 
BRANCH  29  30
ATOM     30  C   LIG d   1       9.612  22.939  -0.617  0.00  0.00     0.133 C 
BRANCH  30  31
ATOM     31  C   LIG d   1       8.332  23.608  -1.090  0.00  0.00     0.174 C 
ATOM     32  O   LIG d   1       7.756  24.329  -0.228  0.00  0.00    -0.648 OA
ATOM     33  O   LIG d   1       8.005  23.394  -2.291  0.00  0.00    -0.648 OA
ENDBRANCH  30  31
ENDBRANCH  29  30
ENDBRANCH  28  29
BRANCH  28  34
ATOM     34  C   LIG d   1      10.145  21.070   1.592  0.00  0.00     0.132 A 
ATOM     35  N   LIG d   1       9.491  21.822   2.513  0.00  0.00    -0.243 NA
ATOM     36  C   LIG d   1      10.166  22.215   3.616  0.00  0.00     0.119 A 
ATOM     37  C   LIG d   1      11.488  21.904   3.866  0.00  0.00     0.019 A 
ATOM     38  C   LIG d   1      12.156  21.137   2.926  0.00  0.00     0.005 A 
ATOM     39  C   LIG d   1      11.480  20.717   1.780  0.00  0.00     0.051 A 
ENDBRANCH  28  34
ENDBRANCH   6  26
TORSDOF 10
ENDMDL
MODEL 8
REMARK VINA RESULT:      -6.9     23.946     28.036
REMARK  10 active torsions:
REMARK  status: ('A' for Active; 'I' for Inactive)
REMARK       I    between atoms: N_6  and  C_20 
REMARK    1  A    between atoms: N_6  and  C_21 
REMARK    2  A    between atoms: N_6  and  C_24 
REMARK    3  A    between atoms: N_7  and  C_14 
REMARK    4  A    between atoms: N_7  and  C_22 
REMARK    5  A    between atoms: N_9  and  C_35 
REMARK    6  A    between atoms: C_12  and  C_14 
REMARK    7  A    between atoms: C_15  and  C_20 
REMARK    8  A    between atoms: C_21  and  C_23 
REMARK    9  A    between atoms: C_23  and  C_31 
REMARK   10  A    between atoms: C_30  and  C_35 
ROOT
ATOM      1  N   LIG d   1      -1.025 -18.628   2.339  0.00  0.00    -0.337 N 
ATOM      2  N   LIG d   1       0.645 -17.235   2.778  0.00  0.00    -0.232 NA
ATOM      3  C   LIG d   1      -1.128 -18.341   3.680  0.00  0.00     0.064 A 
ATOM      4  C   LIG d   1       0.090 -17.986   1.845  0.00  0.00     0.120 A 
ATOM      5  C   LIG d   1      -0.095 -17.437   3.917  0.00  0.00     0.086 A 
ATOM      6  C   LIG d   1      -0.800 -17.287   6.223  0.00  0.00     0.035 A 
ATOM      7  C   LIG d   1       0.060 -16.872   5.192  0.00  0.00     0.051 A 
ATOM      8  C   LIG d   1      -2.016 -18.750   4.682  0.00  0.00     0.033 A 
ATOM      9  C   LIG d   1      -1.826 -18.208   5.957  0.00  0.00     0.019 A 
ATOM     10  C   LIG d   1      -1.944 -19.431   1.570  0.00  0.00     0.158 C 
ENDROOT
BRANCH   4  11
ATOM     11  C   LIG d   1       0.582 -18.107   0.431  0.00  0.00     0.171 C 
BRANCH  11  12
ATOM     12  N   LIG d   1       1.556 -17.074   0.081  0.00  0.00    -0.286 NA
ATOM     13  H   LIG d   1       1.607 -16.391   0.840  0.00  0.00     0.128 HD
BRANCH  12  14
ATOM     14  C   LIG d   1       2.831 -17.463  -0.347  0.00  0.00     0.008 A 
ATOM     15  C   LIG d   1       3.775 -18.057   0.499  0.00  0.00     0.024 A 
ATOM     16  C   LIG d   1       5.010 -18.507   0.012  0.00  0.00     0.017 A 
ATOM     17  C   LIG d   1       5.314 -18.394  -1.349  0.00  0.00     0.009 A 
ATOM     18  C   LIG d   1       4.360 -17.854  -2.213  0.00  0.00     0.017 A 
ATOM     19  C   LIG d   1       3.132 -17.405  -1.715  0.00  0.00     0.024 A 
BRANCH  17  20
ATOM     20  C   LIG d   1       6.629 -18.840  -1.871  0.00  0.00     0.123 C 
ATOM     21  N   LIG d   1       7.095 -18.296  -2.976  0.00  0.00    -0.284 NA
ATOM     22  H   LIG d   1       8.009 -18.647  -3.285  0.00  0.00     0.188 HD
BRANCH  20  23
ATOM     23  N   LIG d   1       7.340 -19.719  -1.282  0.00  0.00    -0.384 N 
ATOM     24  H   LIG d   1       8.327 -19.516  -1.173  0.00  0.00     0.157 HD
ATOM     25  H   LIG d   1       6.939 -20.561  -0.892  0.00  0.00     0.157 HD
ENDBRANCH  20  23
ENDBRANCH  17  20
ENDBRANCH  12  14
ENDBRANCH  11  12
ENDBRANCH   4  11
BRANCH   6  26
ATOM     26  C   LIG d   1      -0.741 -16.686   7.589  0.00  0.00     0.259 C 
ATOM     27  O   LIG d   1      -1.619 -15.860   7.860  0.00  0.00    -0.267 OA
ATOM     28  N   LIG d   1       0.323 -16.980   8.453  0.00  0.00    -0.298 N 
BRANCH  28  29
ATOM     29  C   LIG d   1       0.570 -16.032   9.554  0.00  0.00     0.144 C 
BRANCH  29  30
ATOM     30  C   LIG d   1       0.411 -16.660  10.934  0.00  0.00     0.133 C 
BRANCH  30  31
ATOM     31  C   LIG d   1      -0.738 -16.080  11.742  0.00  0.00     0.174 C 
ATOM     32  O   LIG d   1      -0.539 -16.019  12.987  0.00  0.00    -0.648 OA
ATOM     33  O   LIG d   1      -1.745 -15.700  11.080  0.00  0.00    -0.648 OA
ENDBRANCH  30  31
ENDBRANCH  29  30
ENDBRANCH  28  29
BRANCH  28  34
ATOM     34  C   LIG d   1       0.916 -18.277   8.515  0.00  0.00     0.132 A 
ATOM     35  N   LIG d   1       0.166 -19.301   8.993  0.00  0.00    -0.243 NA
ATOM     36  C   LIG d   1       0.727 -20.528   9.066  0.00  0.00     0.119 A 
ATOM     37  C   LIG d   1       2.026 -20.809   8.688  0.00  0.00     0.019 A 
ATOM     38  C   LIG d   1       2.792 -19.763   8.200  0.00  0.00     0.005 A 
ATOM     39  C   LIG d   1       2.234 -18.488   8.114  0.00  0.00     0.051 A 
ENDBRANCH  28  34
ENDBRANCH   6  26
TORSDOF 10
ENDMDL
MODEL 9
REMARK VINA RESULT:      -6.8     17.871     20.053
REMARK  10 active torsions:
REMARK  status: ('A' for Active; 'I' for Inactive)
REMARK       I    between atoms: N_6  and  C_20 
REMARK    1  A    between atoms: N_6  and  C_21 
REMARK    2  A    between atoms: N_6  and  C_24 
REMARK    3  A    between atoms: N_7  and  C_14 
REMARK    4  A    between atoms: N_7  and  C_22 
REMARK    5  A    between atoms: N_9  and  C_35 
REMARK    6  A    between atoms: C_12  and  C_14 
REMARK    7  A    between atoms: C_15  and  C_20 
REMARK    8  A    between atoms: C_21  and  C_23 
REMARK    9  A    between atoms: C_23  and  C_31 
REMARK   10  A    between atoms: C_30  and  C_35 
ROOT
ATOM      1  N   LIG d   1      11.009  17.066   4.196  0.00  0.00    -0.337 N 
ATOM      2  N   LIG d   1       9.480  17.030   2.590  0.00  0.00    -0.232 NA
ATOM      3  C   LIG d   1      10.428  15.821   4.269  0.00  0.00     0.064 A 
ATOM      4  C   LIG d   1      10.371  17.783   3.207  0.00  0.00     0.120 A 
ATOM      5  C   LIG d   1       9.503  15.814   3.228  0.00  0.00     0.086 A 
ATOM      6  C   LIG d   1       8.923  13.541   3.803  0.00  0.00     0.035 A 
ATOM      7  C   LIG d   1       8.760  14.655   2.961  0.00  0.00     0.051 A 
ATOM      8  C   LIG d   1      10.630  14.718   5.105  0.00  0.00     0.033 A 
ATOM      9  C   LIG d   1       9.855  13.581   4.852  0.00  0.00     0.019 A 
ATOM     10  C   LIG d   1      12.120  17.531   4.989  0.00  0.00     0.158 C 
ENDROOT
BRANCH   4  11
ATOM     11  C   LIG d   1      10.673  19.215   2.867  0.00  0.00     0.171 C 
BRANCH  11  12
ATOM     12  N   LIG d   1      10.989  19.406   1.453  0.00  0.00    -0.286 NA
ATOM     13  H   LIG d   1      10.674  18.587   0.927  0.00  0.00     0.128 HD
BRANCH  12  14
ATOM     14  C   LIG d   1      10.604  20.598   0.828  0.00  0.00     0.008 A 
ATOM     15  C   LIG d   1      11.311  21.799   0.968  0.00  0.00     0.024 A 
ATOM     16  C   LIG d   1      10.939  22.949   0.258  0.00  0.00     0.017 A 
ATOM     17  C   LIG d   1       9.861  22.911  -0.632  0.00  0.00     0.009 A 
ATOM     18  C   LIG d   1       9.183  21.706  -0.822  0.00  0.00     0.017 A 
ATOM     19  C   LIG d   1       9.560  20.564  -0.107  0.00  0.00     0.024 A 
BRANCH  17  20
ATOM     20  C   LIG d   1       9.441  24.130  -1.366  0.00  0.00     0.123 C 
ATOM     21  N   LIG d   1       8.717  24.000  -2.459  0.00  0.00    -0.284 NA
ATOM     22  H   LIG d   1       8.459  24.880  -2.920  0.00  0.00     0.188 HD
BRANCH  20  23
ATOM     23  N   LIG d   1       9.736  25.306  -0.971  0.00  0.00    -0.384 N 
ATOM     24  H   LIG d   1       9.703  25.479   0.027  0.00  0.00     0.157 HD
ATOM     25  H   LIG d   1      10.040  26.027  -1.612  0.00  0.00     0.157 HD
ENDBRANCH  20  23
ENDBRANCH  17  20
ENDBRANCH  12  14
ENDBRANCH  11  12
ENDBRANCH   4  11
BRANCH   6  26
ATOM     26  C   LIG d   1       8.217  12.249   3.548  0.00  0.00     0.259 C 
ATOM     27  O   LIG d   1       8.929  11.295   3.215  0.00  0.00    -0.267 OA
ATOM     28  N   LIG d   1       6.817  12.181   3.585  0.00  0.00    -0.298 N 
BRANCH  28  29
ATOM     29  C   LIG d   1       6.186  11.047   2.887  0.00  0.00     0.144 C 
BRANCH  29  30
ATOM     30  C   LIG d   1       5.146  10.324   3.735  0.00  0.00     0.133 C 
BRANCH  30  31
ATOM     31  C   LIG d   1       5.698   9.130   4.495  0.00  0.00     0.174 C 
ATOM     32  O   LIG d   1       6.852   9.293   4.982  0.00  0.00    -0.648 OA
ATOM     33  O   LIG d   1       4.936   8.126   4.580  0.00  0.00    -0.648 OA
ENDBRANCH  30  31
ENDBRANCH  29  30
ENDBRANCH  28  29
BRANCH  28  34
ATOM     34  C   LIG d   1       6.045  12.928   4.523  0.00  0.00     0.132 A 
ATOM     35  N   LIG d   1       6.212  12.666   5.844  0.00  0.00    -0.243 NA
ATOM     36  C   LIG d   1       5.473  13.362   6.735  0.00  0.00     0.119 A 
ATOM     37  C   LIG d   1       4.547  14.326   6.387  0.00  0.00     0.019 A 
ATOM     38  C   LIG d   1       4.375  14.594   5.039  0.00  0.00     0.005 A 
ATOM     39  C   LIG d   1       5.129  13.890   4.100  0.00  0.00     0.051 A 
ENDBRANCH  28  34
ENDBRANCH   6  26
TORSDOF 10
ENDMDL
