MODEL 1
REMARK VINA RESULT:      -5.4      0.000      0.000
REMARK  2 active torsions:
REMARK  status: ('A' for Active; 'I' for Inactive)
REMARK    1  A    between atoms: O_1  and  C_9 
REMARK    2  A    between atoms: N_3  and  C_4 
REMARK       I    between atoms: N_3  and  C_10 
ROOT
ATOM      1  C   LIG d   1       7.749  -2.530  19.022  0.00  0.00     0.034 A 
ATOM      2  C   LIG d   1       7.265  -3.758  19.481  0.00  0.00     0.032 A 
ATOM      3  C   LIG d   1       8.807  -2.520  18.103  0.00  0.00     0.032 A 
ATOM      4  C   LIG d   1       7.827  -4.958  19.029  0.00  0.00     0.039 A 
ATOM      5  C   LIG d   1       9.369  -3.717  17.650  0.00  0.00     0.039 A 
ATOM      6  C   LIG d   1       8.875  -4.926  18.117  0.00  0.00     0.065 A 
ENDROOT
BRANCH   1   7
ATOM      7  N   LIG d   1       7.237  -1.280  19.426  0.00  0.00    -0.328 N 
ATOM      8  C   LIG d   1       6.785  -0.253  18.617  0.00  0.00     0.218 C 
ATOM      9  O   LIG d   1       6.742  -0.237  17.392  0.00  0.00    -0.274 OA
ATOM     10  C   LIG d   1       6.318   0.932  19.425  0.00  0.00     0.117 C 
ATOM     11  H   LIG d   1       7.198  -1.121  20.424  0.00  0.00     0.169 HD
ENDBRANCH   1   7
BRANCH   6  12
ATOM     12  O   LIG d   1       9.450  -6.071  17.651  0.00  0.00    -0.361 OA
ATOM     13  H   LIG d   1       9.172  -6.808  18.220  0.00  0.00     0.217 HD
ENDBRANCH   6  12
TORSDOF 2
ENDMDL
MODEL 2
REMARK VINA RESULT:      -5.3     26.820     27.695
REMARK  2 active torsions:
REMARK  status: ('A' for Active; 'I' for Inactive)
REMARK    1  A    between atoms: O_1  and  C_9 
REMARK    2  A    between atoms: N_3  and  C_4 
REMARK       I    between atoms: N_3  and  C_10 
ROOT
ATOM      1  C   LIG d   1      19.129   7.421  -4.032  0.00  0.00     0.034 A 
ATOM      2  C   LIG d   1      20.081   7.304  -5.048  0.00  0.00     0.032 A 
ATOM      3  C   LIG d   1      17.847   6.897  -4.242  0.00  0.00     0.032 A 
ATOM      4  C   LIG d   1      19.760   6.674  -6.256  0.00  0.00     0.039 A 
ATOM      5  C   LIG d   1      17.524   6.266  -5.447  0.00  0.00     0.039 A 
ATOM      6  C   LIG d   1      18.482   6.160  -6.444  0.00  0.00     0.065 A 
ENDROOT
BRANCH   1   7
ATOM      7  N   LIG d   1      19.375   8.038  -2.788  0.00  0.00    -0.328 N 
ATOM      8  C   LIG d   1      19.777   9.343  -2.560  0.00  0.00     0.218 C 
ATOM      9  O   LIG d   1      19.992  10.210  -3.398  0.00  0.00    -0.274 OA
ATOM     10  C   LIG d   1      19.941   9.628  -1.088  0.00  0.00     0.117 C 
ATOM     11  H   LIG d   1      19.242   7.457  -1.972  0.00  0.00     0.169 HD
ENDBRANCH   1   7
BRANCH   6  12
ATOM     12  O   LIG d   1      18.128   5.539  -7.604  0.00  0.00    -0.361 OA
ATOM     13  H   LIG d   1      18.006   4.593  -7.422  0.00  0.00     0.217 HD
ENDBRANCH   6  12
TORSDOF 2
ENDMDL
MODEL 3
REMARK VINA RESULT:      -5.2      2.030      5.622
REMARK  2 active torsions:
REMARK  status: ('A' for Active; 'I' for Inactive)
REMARK    1  A    between atoms: O_1  and  C_9 
REMARK    2  A    between atoms: N_3  and  C_4 
REMARK       I    between atoms: N_3  and  C_10 
ROOT
ATOM      1  C   LIG d   1       7.402   0.016  19.055  0.00  0.00     0.034 A 
ATOM      2  C   LIG d   1       7.501   0.479  20.369  0.00  0.00     0.032 A 
ATOM      3  C   LIG d   1       6.497   0.639  18.184  0.00  0.00     0.032 A 
ATOM      4  C   LIG d   1       6.711   1.547  20.810  0.00  0.00     0.039 A 
ATOM      5  C   LIG d   1       5.707   1.705  18.622  0.00  0.00     0.039 A 
ATOM      6  C   LIG d   1       5.820   2.151  19.931  0.00  0.00     0.065 A 
ENDROOT
BRANCH   1   7
ATOM      7  N   LIG d   1       8.163  -1.051  18.535  0.00  0.00    -0.328 N 
ATOM      8  C   LIG d   1       7.743  -2.347  18.294  0.00  0.00     0.218 C 
ATOM      9  O   LIG d   1       6.626  -2.813  18.485  0.00  0.00    -0.274 OA
ATOM     10  C   LIG d   1       8.856  -3.201  17.739  0.00  0.00     0.117 C 
ATOM     11  H   LIG d   1       9.128  -0.839  18.315  0.00  0.00     0.169 HD
ENDBRANCH   1   7
BRANCH   6  12
ATOM     12  O   LIG d   1       5.032   3.193  20.319  0.00  0.00    -0.361 OA
ATOM     13  H   LIG d   1       5.245   3.962  19.764  0.00  0.00     0.217 HD
ENDBRANCH   6  12
TORSDOF 2
ENDMDL
MODEL 4
REMARK VINA RESULT:      -5.0      3.070      4.369
REMARK  2 active torsions:
REMARK  status: ('A' for Active; 'I' for Inactive)
REMARK    1  A    between atoms: O_1  and  C_9 
REMARK    2  A    between atoms: N_3  and  C_4 
REMARK       I    between atoms: N_3  and  C_10 
ROOT
ATOM      1  C   LIG d   1       7.712  -4.363  20.724  0.00  0.00     0.034 A 
ATOM      2  C   LIG d   1       7.839  -5.409  19.807  0.00  0.00     0.032 A 
ATOM      3  C   LIG d   1       8.218  -3.100  20.386  0.00  0.00     0.032 A 
ATOM      4  C   LIG d   1       8.460  -5.199  18.570  0.00  0.00     0.039 A 
ATOM      5  C   LIG d   1       8.838  -2.889  19.152  0.00  0.00     0.039 A 
ATOM      6  C   LIG d   1       8.955  -3.940  18.254  0.00  0.00     0.065 A 
ENDROOT
BRANCH   1   7
ATOM      7  N   LIG d   1       7.098  -4.492  21.987  0.00  0.00    -0.328 N 
ATOM      8  C   LIG d   1       7.678  -4.928  23.165  0.00  0.00     0.218 C 
ATOM      9  O   LIG d   1       8.839  -5.282  23.334  0.00  0.00    -0.274 OA
ATOM     10  C   LIG d   1       6.692  -4.934  24.306  0.00  0.00     0.117 C 
ATOM     11  H   LIG d   1       6.121  -4.236  22.032  0.00  0.00     0.169 HD
ENDBRANCH   1   7
BRANCH   6  12
ATOM     12  O   LIG d   1       9.566  -3.693  17.061  0.00  0.00    -0.361 OA
ATOM     13  H   LIG d   1       9.441  -4.465  16.485  0.00  0.00     0.217 HD
ENDBRANCH   6  12
TORSDOF 2
ENDMDL
MODEL 5
REMARK VINA RESULT:      -5.0     41.828     43.664
REMARK  2 active torsions:
REMARK  status: ('A' for Active; 'I' for Inactive)
REMARK    1  A    between atoms: O_1  and  C_9 
REMARK    2  A    between atoms: N_3  and  C_4 
REMARK       I    between atoms: N_3  and  C_10 
ROOT
ATOM      1  C   LIG d   1       6.992  27.867 -12.822  0.00  0.00     0.034 A 
ATOM      2  C   LIG d   1       7.288  28.900 -11.929  0.00  0.00     0.032 A 
ATOM      3  C   LIG d   1       6.666  26.603 -12.311  0.00  0.00     0.032 A 
ATOM      4  C   LIG d   1       7.257  28.678 -10.548  0.00  0.00     0.039 A 
ATOM      5  C   LIG d   1       6.635  26.379 -10.932  0.00  0.00     0.039 A 
ATOM      6  C   LIG d   1       6.931  27.418 -10.061  0.00  0.00     0.065 A 
ENDROOT
BRANCH   1   7
ATOM      7  N   LIG d   1       6.999  28.011 -14.225  0.00  0.00    -0.328 N 
ATOM      8  C   LIG d   1       5.907  28.155 -15.062  0.00  0.00     0.218 C 
ATOM      9  O   LIG d   1       4.725  28.188 -14.741  0.00  0.00    -0.274 OA
ATOM     10  C   LIG d   1       6.322  28.275 -16.507  0.00  0.00     0.117 C 
ATOM     11  H   LIG d   1       7.909  28.007 -14.665  0.00  0.00     0.169 HD
ENDBRANCH   1   7
BRANCH   6  12
ATOM     12  O   LIG d   1       6.890  27.159  -8.724  0.00  0.00    -0.361 OA
ATOM     13  H   LIG d   1       6.651  27.978  -8.259  0.00  0.00     0.217 HD
ENDBRANCH   6  12
TORSDOF 2
ENDMDL
MODEL 6
REMARK VINA RESULT:      -4.9     23.449     24.537
REMARK  2 active torsions:
REMARK  status: ('A' for Active; 'I' for Inactive)
REMARK    1  A    between atoms: O_1  and  C_9 
REMARK    2  A    between atoms: N_3  and  C_4 
REMARK       I    between atoms: N_3  and  C_10 
ROOT
ATOM      1  C   LIG d   1      15.551  -2.834  -4.624  0.00  0.00     0.034 A 
ATOM      2  C   LIG d   1      15.499  -1.594  -3.981  0.00  0.00     0.032 A 
ATOM      3  C   LIG d   1      14.624  -3.110  -5.638  0.00  0.00     0.032 A 
ATOM      4  C   LIG d   1      14.537  -0.644  -4.343  0.00  0.00     0.039 A 
ATOM      5  C   LIG d   1      13.663  -2.163  -6.001  0.00  0.00     0.039 A 
ATOM      6  C   LIG d   1      13.627  -0.938  -5.351  0.00  0.00     0.065 A 
ENDROOT
BRANCH   1   7
ATOM      7  N   LIG d   1      16.489  -3.841  -4.319  0.00  0.00    -0.328 N 
ATOM      8  C   LIG d   1      16.671  -4.484  -3.107  0.00  0.00     0.218 C 
ATOM      9  O   LIG d   1      16.048  -4.300  -2.068  0.00  0.00    -0.274 OA
ATOM     10  C   LIG d   1      17.783  -5.501  -3.175  0.00  0.00     0.117 C 
ATOM     11  H   LIG d   1      17.097  -4.123  -5.076  0.00  0.00     0.169 HD
ENDBRANCH   1   7
BRANCH   6  12
ATOM     12  O   LIG d   1      12.675  -0.041  -5.735  0.00  0.00    -0.361 OA
ATOM     13  H   LIG d   1      13.083   0.839  -5.784  0.00  0.00     0.217 HD
ENDBRANCH   6  12
TORSDOF 2
ENDMDL
MODEL 7
REMARK VINA RESULT:      -4.9     24.699     25.865
REMARK  2 active torsions:
REMARK  status: ('A' for Active; 'I' for Inactive)
REMARK    1  A    between atoms: O_1  and  C_9 
REMARK    2  A    between atoms: N_3  and  C_4 
REMARK       I    between atoms: N_3  and  C_10 
ROOT
ATOM      1  C   LIG d   1      14.499  -1.993  -6.340  0.00  0.00     0.034 A 
ATOM      2  C   LIG d   1      14.896  -2.141  -5.009  0.00  0.00     0.032 A 
ATOM      3  C   LIG d   1      14.047  -0.740  -6.776  0.00  0.00     0.032 A 
ATOM      4  C   LIG d   1      14.845  -1.056  -4.126  0.00  0.00     0.039 A 
ATOM      5  C   LIG d   1      13.995   0.345  -5.896  0.00  0.00     0.039 A 
ATOM      6  C   LIG d   1      14.394   0.178  -4.578  0.00  0.00     0.065 A 
ENDROOT
BRANCH   1   7
ATOM      7  N   LIG d   1      14.523  -3.034  -7.291  0.00  0.00    -0.328 N 
ATOM      8  C   LIG d   1      13.461  -3.812  -7.716  0.00  0.00     0.218 C 
ATOM      9  O   LIG d   1      12.294  -3.741  -7.347  0.00  0.00    -0.274 OA
ATOM     10  C   LIG d   1      13.889  -4.830  -8.743  0.00  0.00     0.117 C 
ATOM     11  H   LIG d   1      15.424  -3.231  -7.707  0.00  0.00     0.169 HD
ENDBRANCH   1   7
BRANCH   6  12
ATOM     12  O   LIG d   1      14.328   1.260  -3.752  0.00  0.00    -0.361 OA
ATOM     13  H   LIG d   1      15.025   1.176  -3.080  0.00  0.00     0.217 HD
ENDBRANCH   6  12
TORSDOF 2
ENDMDL
MODEL 8
REMARK VINA RESULT:      -4.8     27.533     28.191
REMARK  2 active torsions:
REMARK  status: ('A' for Active; 'I' for Inactive)
REMARK    1  A    between atoms: O_1  and  C_9 
REMARK    2  A    between atoms: N_3  and  C_4 
REMARK       I    between atoms: N_3  and  C_10 
ROOT
ATOM      1  C   LIG d   1       3.334  -4.183  -9.268  0.00  0.00     0.034 A 
ATOM      2  C   LIG d   1       3.009  -4.733  -8.026  0.00  0.00     0.032 A 
ATOM      3  C   LIG d   1       4.286  -3.155  -9.325  0.00  0.00     0.032 A 
ATOM      4  C   LIG d   1       3.623  -4.266  -6.858  0.00  0.00     0.039 A 
ATOM      5  C   LIG d   1       4.900  -2.688  -8.160  0.00  0.00     0.039 A 
ATOM      6  C   LIG d   1       4.564  -3.247  -6.936  0.00  0.00     0.065 A 
ENDROOT
BRANCH   1   7
ATOM      7  N   LIG d   1       2.763  -4.598 -10.489  0.00  0.00    -0.328 N 
ATOM      8  C   LIG d   1       1.750  -3.979 -11.199  0.00  0.00     0.218 C 
ATOM      9  O   LIG d   1       1.159  -2.947 -10.902  0.00  0.00    -0.274 OA
ATOM     10  C   LIG d   1       1.408  -4.734 -12.459  0.00  0.00     0.117 C 
ATOM     11  H   LIG d   1       3.140  -5.448 -10.886  0.00  0.00     0.169 HD
ENDBRANCH   1   7
BRANCH   6  12
ATOM     12  O   LIG d   1       5.186  -2.764  -5.824  0.00  0.00    -0.361 OA
ATOM     13  H   LIG d   1       5.834  -3.422  -5.523  0.00  0.00     0.217 HD
ENDBRANCH   6  12
TORSDOF 2
ENDMDL
MODEL 9
REMARK VINA RESULT:      -4.8     23.986     25.011
REMARK  2 active torsions:
REMARK  status: ('A' for Active; 'I' for Inactive)
REMARK    1  A    between atoms: O_1  and  C_9 
REMARK    2  A    between atoms: N_3  and  C_4 
REMARK       I    between atoms: N_3  and  C_10 
ROOT
ATOM      1  C   LIG d   1      15.265  -2.207  -4.609  0.00  0.00     0.034 A 
ATOM      2  C   LIG d   1      14.845  -2.415  -5.926  0.00  0.00     0.032 A 
ATOM      3  C   LIG d   1      14.940  -0.998  -3.979  0.00  0.00     0.032 A 
ATOM      4  C   LIG d   1      14.112  -1.434  -6.603  0.00  0.00     0.039 A 
ATOM      5  C   LIG d   1      14.208  -0.017  -4.653  0.00  0.00     0.039 A 
ATOM      6  C   LIG d   1      13.800  -0.243  -5.959  0.00  0.00     0.065 A 
ENDROOT
BRANCH   1   7
ATOM      7  N   LIG d   1      16.004  -3.145  -3.860  0.00  0.00    -0.328 N 
ATOM      8  C   LIG d   1      17.379  -3.287  -3.809  0.00  0.00     0.218 C 
ATOM      9  O   LIG d   1      18.217  -2.621  -4.405  0.00  0.00    -0.274 OA
ATOM     10  C   LIG d   1      17.792  -4.414  -2.894  0.00  0.00     0.117 C 
ATOM     11  H   LIG d   1      15.462  -3.786  -3.296  0.00  0.00     0.169 HD
ENDBRANCH   1   7
BRANCH   6  12
ATOM     12  O   LIG d   1      13.087   0.739  -6.582  0.00  0.00    -0.361 OA
ATOM     13  H   LIG d   1      12.910   1.445  -5.939  0.00  0.00     0.217 HD
ENDBRANCH   6  12
TORSDOF 2
ENDMDL
