REMARK  2 active torsions:
REMARK  status: ('A' for Active; 'I' for Inactive)
REMARK    1  A    between atoms: O_1  and  C_9 
REMARK    2  A    between atoms: N_3  and  C_4 
REMARK       I    between atoms: N_3  and  C_10 
ROOT
ATOM      1  C   LIG d   1      11.407 -31.894  23.286  0.00  0.00     0.034 A 
ATOM      2  C   LIG d   1      10.711 -32.987  22.763  0.00  0.00     0.032 A 
ATOM      3  C   LIG d   1      10.792 -30.635  23.281  0.00  0.00     0.032 A 
ATOM      4  C   LIG d   1       9.420 -32.827  22.245  0.00  0.00     0.039 A 
ATOM      5  C   LIG d   1       9.503 -30.473  22.765  0.00  0.00     0.039 A 
ATOM      6  C   LIG d   1       8.828 -31.570  22.250  0.00  0.00     0.065 A 
ENDROOT
BRANCH   1   7
ATOM      7  N   LIG d   1      12.706 -31.973  23.827  0.00  0.00    -0.328 N 
ATOM      8  C   LIG d   1      13.097 -31.695  25.125  0.00  0.00     0.218 C 
ATOM      9  O   LIG d   1      12.384 -31.330  26.053  0.00  0.00    -0.274 OA
ATOM     10  C   LIG d   1      14.580 -31.891  25.317  0.00  0.00     0.117 C 
ATOM     11  H   LIG d   1      13.434 -32.267  23.189  0.00  0.00     0.169 HD
ENDBRANCH   1   7
BRANCH   6  12
ATOM     12  O   LIG d   1       7.574 -31.371  21.756  0.00  0.00    -0.361 OA
ATOM     13  H   LIG d   1       7.409 -32.028  21.059  0.00  0.00     0.217 HD
ENDBRANCH   6  12
TORSDOF 2
