MODEL 1
REMARK VINA RESULT:      -8.0      0.000      0.000
REMARK  9 active torsions:
REMARK  status: ('A' for Active; 'I' for Inactive)
REMARK    1  A    between atoms: N_3  and  C_17 
REMARK    2  A    between atoms: N_4  and  C_18 
REMARK       I    between atoms: N_5  and  C_19 
REMARK       I    between atoms: N_6  and  C_20 
REMARK       I    between atoms: N_7  and  C_19 
REMARK       I    between atoms: N_8  and  C_20 
REMARK       I    between atoms: N_9  and  C_21 
REMARK    3  A    between atoms: N_9  and  C_23 
REMARK       I    between atoms: N_10  and  C_22 
REMARK    4  A    between atoms: N_10  and  C_24 
REMARK       I    between atoms: N_11  and  C_21 
REMARK       I    between atoms: N_12  and  C_22 
REMARK    5  A    between atoms: C_13  and  C_14 
REMARK    6  A    between atoms: C_13  and  C_15 
REMARK    7  A    between atoms: C_14  and  C_16 
REMARK    8  A    between atoms: C_15  and  C_17 
REMARK    9  A    between atoms: C_16  and  C_18 
ROOT
ATOM      1  C   LIG d   1      13.041  19.275   7.175  0.00  0.00     0.002 C 
ENDROOT
BRANCH   1   2
ATOM      2  C   LIG d   1      12.572  17.944   6.585  0.00  0.00     0.002 C 
BRANCH   2   3
ATOM      3  C   LIG d   1      13.557  17.425   5.538  0.00  0.00     0.022 C 
BRANCH   3   4
ATOM      4  C   LIG d   1      13.436  15.912   5.365  0.00  0.00     0.152 C 
BRANCH   4   5
ATOM      5  N   LIG d   1      12.222  15.597   4.618  0.00  0.00    -0.261 NA
ATOM      6  C   LIG d   1      11.491  14.601   4.968  0.00  0.00     0.197 C 
ATOM      7  N   LIG d   1      10.355  14.352   4.258  0.00  0.00    -0.190 NA
ATOM      8  N   LIG d   1      11.685  13.765   6.020  0.00  0.00    -0.271 NA
ATOM      9  C   LIG d   1      10.317  14.479   2.972  0.00  0.00     0.180 C 
ATOM     10  N   LIG d   1       9.222  14.229   2.185  0.00  0.00    -0.331 N 
ATOM     11  N   LIG d   1      11.358  14.849   2.165  0.00  0.00    -0.272 NA
ATOM     12  H   LIG d   1       9.460  13.863   1.274  0.00  0.00     0.168 HD
ATOM     13  H   LIG d   1      12.106  15.234   2.749  0.00  0.00     0.127 HD
ATOM     14  H   LIG d   1      11.081  15.564   1.501  0.00  0.00     0.127 HD
ATOM     15  H   LIG d   1      12.042  14.216   6.848  0.00  0.00     0.127 HD
ATOM     16  H   LIG d   1      10.835  13.246   6.207  0.00  0.00     0.127 HD
BRANCH  10  17
ATOM     17  C   LIG d   1       7.899  13.985   2.594  0.00  0.00     0.034 A 
ATOM     18  C   LIG d   1       7.390  12.679   2.517  0.00  0.00     0.031 A 
ATOM     19  C   LIG d   1       6.072  12.392   2.893  0.00  0.00     0.026 A 
ATOM     20  C   LIG d   1       5.244  13.415   3.341  0.00  0.00     0.034 A 
ATOM     21 CL   LIG d   1       3.622  13.069   3.798  0.00  0.00    -0.084 Cl
ATOM     22  C   LIG d   1       5.721  14.719   3.413  0.00  0.00     0.026 A 
ATOM     23  C   LIG d   1       7.039  14.999   3.039  0.00  0.00     0.031 A 
ENDBRANCH  10  17
ENDBRANCH   4   5
ENDBRANCH   3   4
ENDBRANCH   2   3
ENDBRANCH   1   2
BRANCH   1  24
ATOM     24  C   LIG d   1      12.281  20.452   6.566  0.00  0.00     0.022 C 
BRANCH  24  25
ATOM     25  C   LIG d   1      12.956  20.947   5.288  0.00  0.00     0.152 C 
BRANCH  25  26
ATOM     26  N   LIG d   1      12.103  20.690   4.131  0.00  0.00    -0.261 NA
ATOM     27  C   LIG d   1      12.598  20.172   3.064  0.00  0.00     0.197 C 
ATOM     28  N   LIG d   1      11.779  19.938   1.996  0.00  0.00    -0.190 NA
ATOM     29  N   LIG d   1      13.880  19.761   2.879  0.00  0.00    -0.271 NA
ATOM     30  C   LIG d   1      10.723  20.658   1.763  0.00  0.00     0.180 C 
ATOM     31  N   LIG d   1       9.946  20.321   0.692  0.00  0.00    -0.331 N 
ATOM     32  N   LIG d   1      10.254  21.683   2.526  0.00  0.00    -0.272 NA
ATOM     33  H   LIG d   1      10.293  19.492   0.222  0.00  0.00     0.168 HD
ATOM     34  H   LIG d   1      10.722  21.678   3.438  0.00  0.00     0.127 HD
ATOM     35  H   LIG d   1       9.249  21.648   2.642  0.00  0.00     0.127 HD
ATOM     36  H   LIG d   1      14.323  19.383   3.702  0.00  0.00     0.127 HD
ATOM     37  H   LIG d   1      13.940  19.138   2.083  0.00  0.00     0.127 HD
BRANCH  31  38
ATOM     38  C   LIG d   1       9.132  21.115  -0.140  0.00  0.00     0.034 A 
ATOM     39  C   LIG d   1       7.783  20.748  -0.289  0.00  0.00     0.031 A 
ATOM     40  C   LIG d   1       6.901  21.518  -1.055  0.00  0.00     0.026 A 
ATOM     41  C   LIG d   1       7.360  22.673  -1.679  0.00  0.00     0.034 A 
ATOM     42 CL   LIG d   1       6.280  23.625  -2.619  0.00  0.00    -0.084 Cl
ATOM     43  C   LIG d   1       8.688  23.061  -1.541  0.00  0.00     0.026 A 
ATOM     44  C   LIG d   1       9.565  22.287  -0.772  0.00  0.00     0.031 A 
ENDBRANCH  31  38
ENDBRANCH  25  26
ENDBRANCH  24  25
ENDBRANCH   1  24
TORSDOF 9
ENDMDL
MODEL 2
REMARK VINA RESULT:      -7.7      3.635      7.507
REMARK  9 active torsions:
REMARK  status: ('A' for Active; 'I' for Inactive)
REMARK    1  A    between atoms: N_3  and  C_17 
REMARK    2  A    between atoms: N_4  and  C_18 
REMARK       I    between atoms: N_5  and  C_19 
REMARK       I    between atoms: N_6  and  C_20 
REMARK       I    between atoms: N_7  and  C_19 
REMARK       I    between atoms: N_8  and  C_20 
REMARK       I    between atoms: N_9  and  C_21 
REMARK    3  A    between atoms: N_9  and  C_23 
REMARK       I    between atoms: N_10  and  C_22 
REMARK    4  A    between atoms: N_10  and  C_24 
REMARK       I    between atoms: N_11  and  C_21 
REMARK       I    between atoms: N_12  and  C_22 
REMARK    5  A    between atoms: C_13  and  C_14 
REMARK    6  A    between atoms: C_13  and  C_15 
REMARK    7  A    between atoms: C_14  and  C_16 
REMARK    8  A    between atoms: C_15  and  C_17 
REMARK    9  A    between atoms: C_16  and  C_18 
ROOT
ATOM      1  C   LIG d   1       9.043  23.661   2.006  0.00  0.00     0.002 C 
ENDROOT
BRANCH   1   2
ATOM      2  C   LIG d   1      10.457  24.083   1.604  0.00  0.00     0.002 C 
BRANCH   2   3
ATOM      3  C   LIG d   1      11.013  25.139   2.558  0.00  0.00     0.022 C 
BRANCH   3   4
ATOM      4  C   LIG d   1      12.239  24.620   3.306  0.00  0.00     0.152 C 
BRANCH   4   5
ATOM      5  N   LIG d   1      12.148  23.170   3.454  0.00  0.00    -0.261 NA
ATOM      6  C   LIG d   1      12.939  22.554   4.257  0.00  0.00     0.197 C 
ATOM      7  N   LIG d   1      12.810  21.204   4.383  0.00  0.00    -0.190 NA
ATOM      8  N   LIG d   1      13.889  23.100   5.060  0.00  0.00    -0.271 NA
ATOM      9  C   LIG d   1      12.561  20.448   3.364  0.00  0.00     0.180 C 
ATOM     10  N   LIG d   1      12.435  19.083   3.405  0.00  0.00    -0.331 N 
ATOM     11  N   LIG d   1      12.411  20.860   2.069  0.00  0.00    -0.272 NA
ATOM     12  H   LIG d   1      12.767  18.626   2.568  0.00  0.00     0.168 HD
ATOM     13  H   LIG d   1      12.295  21.878   2.059  0.00  0.00     0.127 HD
ATOM     14  H   LIG d   1      11.591  20.449   1.636  0.00  0.00     0.127 HD
ATOM     15  H   LIG d   1      13.628  23.983   5.471  0.00  0.00     0.127 HD
ATOM     16  H   LIG d   1      14.176  22.425   5.759  0.00  0.00     0.127 HD
BRANCH  10  17
ATOM     17  C   LIG d   1      12.352  18.254   4.538  0.00  0.00     0.034 A 
ATOM     18  C   LIG d   1      13.448  17.444   4.874  0.00  0.00     0.031 A 
ATOM     19  C   LIG d   1      13.402  16.587   5.980  0.00  0.00     0.026 A 
ATOM     20  C   LIG d   1      12.251  16.524   6.758  0.00  0.00     0.034 A 
ATOM     21 CL   LIG d   1      12.189  15.468   8.115  0.00  0.00    -0.084 Cl
ATOM     22  C   LIG d   1      11.148  17.306   6.437  0.00  0.00     0.026 A 
ATOM     23  C   LIG d   1      11.200  18.162   5.332  0.00  0.00     0.031 A 
ENDBRANCH  10  17
ENDBRANCH   4   5
ENDBRANCH   3   4
ENDBRANCH   2   3
ENDBRANCH   1   2
BRANCH   1  24
ATOM     24  C   LIG d   1       8.122  23.572   0.790  0.00  0.00     0.022 C 
BRANCH  24  25
ATOM     25  C   LIG d   1       8.840  22.948  -0.406  0.00  0.00     0.152 C 
BRANCH  25  26
ATOM     26  N   LIG d   1       8.946  21.502  -0.235  0.00  0.00    -0.261 NA
ATOM     27  C   LIG d   1       7.958  20.739  -0.542  0.00  0.00     0.197 C 
ATOM     28  N   LIG d   1       8.081  19.389  -0.377  0.00  0.00    -0.190 NA
ATOM     29  N   LIG d   1       6.773  21.124  -1.084  0.00  0.00    -0.271 NA
ATOM     30  C   LIG d   1       8.855  18.871   0.530  0.00  0.00     0.180 C 
ATOM     31  N   LIG d   1       8.941  17.510   0.590  0.00  0.00    -0.331 N 
ATOM     32  N   LIG d   1       9.661  19.548   1.393  0.00  0.00    -0.272 NA
ATOM     33  H   LIG d   1       8.394  17.065  -0.139  0.00  0.00     0.168 HD
ATOM     34  H   LIG d   1       9.750  20.522   1.091  0.00  0.00     0.127 HD
ATOM     35  H   LIG d   1      10.574  19.118   1.483  0.00  0.00     0.127 HD
ATOM     36  H   LIG d   1       6.834  21.906  -1.717  0.00  0.00     0.127 HD
ATOM     37  H   LIG d   1       6.296  20.329  -1.492  0.00  0.00     0.127 HD
BRANCH  31  38
ATOM     38  C   LIG d   1       9.190  16.652   1.680  0.00  0.00     0.034 A 
ATOM     39  C   LIG d   1      10.300  15.793   1.604  0.00  0.00     0.031 A 
ATOM     40  C   LIG d   1      10.642  14.951   2.668  0.00  0.00     0.026 A 
ATOM     41  C   LIG d   1       9.877  14.965   3.829  0.00  0.00     0.034 A 
ATOM     42 CL   LIG d   1      10.295  13.935   5.142  0.00  0.00    -0.084 Cl
ATOM     43  C   LIG d   1       8.778  15.811   3.932  0.00  0.00     0.026 A 
ATOM     44  C   LIG d   1       8.442  16.651   2.864  0.00  0.00     0.031 A 
ENDBRANCH  31  38
ENDBRANCH  25  26
ENDBRANCH  24  25
ENDBRANCH   1  24
TORSDOF 9
ENDMDL
MODEL 3
REMARK VINA RESULT:      -7.3      5.877      7.966
REMARK  9 active torsions:
REMARK  status: ('A' for Active; 'I' for Inactive)
REMARK    1  A    between atoms: N_3  and  C_17 
REMARK    2  A    between atoms: N_4  and  C_18 
REMARK       I    between atoms: N_5  and  C_19 
REMARK       I    between atoms: N_6  and  C_20 
REMARK       I    between atoms: N_7  and  C_19 
REMARK       I    between atoms: N_8  and  C_20 
REMARK       I    between atoms: N_9  and  C_21 
REMARK    3  A    between atoms: N_9  and  C_23 
REMARK       I    between atoms: N_10  and  C_22 
REMARK    4  A    between atoms: N_10  and  C_24 
REMARK       I    between atoms: N_11  and  C_21 
REMARK       I    between atoms: N_12  and  C_22 
REMARK    5  A    between atoms: C_13  and  C_14 
REMARK    6  A    between atoms: C_13  and  C_15 
REMARK    7  A    between atoms: C_14  and  C_16 
REMARK    8  A    between atoms: C_15  and  C_17 
REMARK    9  A    between atoms: C_16  and  C_18 
ROOT
ATOM      1  C   LIG d   1       5.904  13.620   4.441  0.00  0.00     0.002 C 
ENDROOT
BRANCH   1   2
ATOM      2  C   LIG d   1       6.665  12.393   4.946  0.00  0.00     0.002 C 
BRANCH   2   3
ATOM      3  C   LIG d   1       6.122  11.108   4.322  0.00  0.00     0.022 C 
BRANCH   3   4
ATOM      4  C   LIG d   1       6.660   9.873   5.042  0.00  0.00     0.152 C 
BRANCH   4   5
ATOM      5  N   LIG d   1       5.852   8.708   4.691  0.00  0.00    -0.261 NA
ATOM      6  C   LIG d   1       4.916   8.313   5.478  0.00  0.00     0.197 C 
ATOM      7  N   LIG d   1       4.171   7.235   5.106  0.00  0.00    -0.190 NA
ATOM      8  N   LIG d   1       4.530   8.880   6.650  0.00  0.00    -0.271 NA
ATOM      9  C   LIG d   1       4.704   6.209   4.526  0.00  0.00     0.180 C 
ATOM     10  N   LIG d   1       4.027   5.081   4.140  0.00  0.00    -0.331 N 
ATOM     11  N   LIG d   1       6.028   6.048   4.225  0.00  0.00    -0.272 NA
ATOM     12  H   LIG d   1       4.581   4.239   4.212  0.00  0.00     0.168 HD
ATOM     13  H   LIG d   1       6.499   6.954   4.315  0.00  0.00     0.127 HD
ATOM     14  H   LIG d   1       6.159   5.723   3.273  0.00  0.00     0.127 HD
ATOM     15  H   LIG d   1       4.555   9.888   6.651  0.00  0.00     0.127 HD
ATOM     16  H   LIG d   1       3.621   8.523   6.920  0.00  0.00     0.127 HD
BRANCH  10  17
ATOM     17  C   LIG d   1       2.637   4.874   4.104  0.00  0.00     0.034 A 
ATOM     18  C   LIG d   1       1.972   4.911   2.867  0.00  0.00     0.031 A 
ATOM     19  C   LIG d   1       0.587   4.733   2.785  0.00  0.00     0.026 A 
ATOM     20  C   LIG d   1      -0.153   4.525   3.944  0.00  0.00     0.034 A 
ATOM     21 CL   LIG d   1      -1.857   4.310   3.848  0.00  0.00    -0.084 Cl
ATOM     22  C   LIG d   1       0.480   4.498   5.181  0.00  0.00     0.026 A 
ATOM     23  C   LIG d   1       1.865   4.674   5.257  0.00  0.00     0.031 A 
ENDBRANCH  10  17
ENDBRANCH   4   5
ENDBRANCH   3   4
ENDBRANCH   2   3
ENDBRANCH   1   2
BRANCH   1  24
ATOM     24  C   LIG d   1       6.853  14.780   4.145  0.00  0.00     0.022 C 
BRANCH  24  25
ATOM     25  C   LIG d   1       8.133  14.292   3.467  0.00  0.00     0.152 C 
BRANCH  25  26
ATOM     26  N   LIG d   1       8.651  15.317   2.565  0.00  0.00    -0.261 NA
ATOM     27  C   LIG d   1       9.896  15.328   2.245  0.00  0.00     0.197 C 
ATOM     28  N   LIG d   1      10.357  16.294   1.397  0.00  0.00    -0.190 NA
ATOM     29  N   LIG d   1      10.840  14.425   2.621  0.00  0.00    -0.271 NA
ATOM     30  C   LIG d   1       9.807  17.469   1.323  0.00  0.00     0.180 C 
ATOM     31  N   LIG d   1      10.316  18.354   0.416  0.00  0.00    -0.331 N 
ATOM     32  N   LIG d   1       8.712  17.898   2.008  0.00  0.00    -0.272 NA
ATOM     33  H   LIG d   1      11.065  17.943  -0.130  0.00  0.00     0.168 HD
ATOM     34  H   LIG d   1       8.236  17.099   2.436  0.00  0.00     0.127 HD
ATOM     35  H   LIG d   1       8.073  18.422   1.422  0.00  0.00     0.127 HD
ATOM     36  H   LIG d   1      10.502  13.481   2.721  0.00  0.00     0.127 HD
ATOM     37  H   LIG d   1      11.650  14.488   2.017  0.00  0.00     0.127 HD
BRANCH  31  38
ATOM     38  C   LIG d   1      10.367  19.762   0.434  0.00  0.00     0.034 A 
ATOM     39  C   LIG d   1       9.464  20.465  -0.382  0.00  0.00     0.031 A 
ATOM     40  C   LIG d   1       9.419  21.864  -0.378  0.00  0.00     0.026 A 
ATOM     41  C   LIG d   1      10.276  22.577   0.452  0.00  0.00     0.034 A 
ATOM     42 CL   LIG d   1      10.222  24.296   0.465  0.00  0.00    -0.084 Cl
ATOM     43  C   LIG d   1      11.173  21.904   1.274  0.00  0.00     0.026 A 
ATOM     44  C   LIG d   1      11.213  20.505   1.266  0.00  0.00     0.031 A 
ENDBRANCH  31  38
ENDBRANCH  25  26
ENDBRANCH  24  25
ENDBRANCH   1  24
TORSDOF 9
ENDMDL
MODEL 4
REMARK VINA RESULT:      -7.3     36.780     40.514
REMARK  9 active torsions:
REMARK  status: ('A' for Active; 'I' for Inactive)
REMARK    1  A    between atoms: N_3  and  C_17 
REMARK    2  A    between atoms: N_4  and  C_18 
REMARK       I    between atoms: N_5  and  C_19 
REMARK       I    between atoms: N_6  and  C_20 
REMARK       I    between atoms: N_7  and  C_19 
REMARK       I    between atoms: N_8  and  C_20 
REMARK       I    between atoms: N_9  and  C_21 
REMARK    3  A    between atoms: N_9  and  C_23 
REMARK       I    between atoms: N_10  and  C_22 
REMARK    4  A    between atoms: N_10  and  C_24 
REMARK       I    between atoms: N_11  and  C_21 
REMARK       I    between atoms: N_12  and  C_22 
REMARK    5  A    between atoms: C_13  and  C_14 
REMARK    6  A    between atoms: C_13  and  C_15 
REMARK    7  A    between atoms: C_14  and  C_16 
REMARK    8  A    between atoms: C_15  and  C_17 
REMARK    9  A    between atoms: C_16  and  C_18 
ROOT
ATOM      1  C   LIG d   1       1.125 -25.331   9.298  0.00  0.00     0.002 C 
ENDROOT
BRANCH   1   2
ATOM      2  C   LIG d   1       2.266 -24.329   9.474  0.00  0.00     0.002 C 
BRANCH   2   3
ATOM      3  C   LIG d   1       3.408 -24.611   8.498  0.00  0.00     0.022 C 
BRANCH   3   4
ATOM      4  C   LIG d   1       3.716 -23.388   7.637  0.00  0.00     0.152 C 
BRANCH   4   5
ATOM      5  N   LIG d   1       2.737 -22.338   7.906  0.00  0.00    -0.261 NA
ATOM      6  C   LIG d   1       3.102 -21.106   7.922  0.00  0.00     0.197 C 
ATOM      7  N   LIG d   1       2.156 -20.155   8.155  0.00  0.00    -0.190 NA
ATOM      8  N   LIG d   1       4.344 -20.610   7.680  0.00  0.00    -0.271 NA
ATOM      9  C   LIG d   1       1.214 -20.333   9.023  0.00  0.00     0.180 C 
ATOM     10  N   LIG d   1       0.239 -19.419   9.329  0.00  0.00    -0.331 N 
ATOM     11  N   LIG d   1       1.038 -21.438   9.810  0.00  0.00    -0.272 NA
ATOM     12  H   LIG d   1      -0.049 -19.451  10.297  0.00  0.00     0.168 HD
ATOM     13  H   LIG d   1       1.624 -22.197   9.447  0.00  0.00     0.127 HD
ATOM     14  H   LIG d   1       0.075 -21.755   9.800  0.00  0.00     0.127 HD
ATOM     15  H   LIG d   1       4.848 -21.092   6.952  0.00  0.00     0.127 HD
ATOM     16  H   LIG d   1       4.287 -19.614   7.507  0.00  0.00     0.127 HD
BRANCH  10  17
ATOM     17  C   LIG d   1      -0.066 -18.220   8.660  0.00  0.00     0.034 A 
ATOM     18  C   LIG d   1       0.455 -17.012   9.150  0.00  0.00     0.031 A 
ATOM     19  C   LIG d   1       0.162 -15.793   8.530  0.00  0.00     0.026 A 
ATOM     20  C   LIG d   1      -0.669 -15.767   7.415  0.00  0.00     0.034 A 
ATOM     21 CL   LIG d   1      -1.038 -14.270   6.652  0.00  0.00    -0.084 Cl
ATOM     22  C   LIG d   1      -1.209 -16.949   6.919  0.00  0.00     0.026 A 
ATOM     23  C   LIG d   1      -0.910 -18.165   7.542  0.00  0.00     0.031 A 
ENDBRANCH  10  17
ENDBRANCH   4   5
ENDBRANCH   3   4
ENDBRANCH   2   3
ENDBRANCH   1   2
BRANCH   1  24
ATOM     24  C   LIG d   1       0.076 -25.180  10.399  0.00  0.00     0.022 C 
BRANCH  24  25
ATOM     25  C   LIG d   1      -1.303 -24.880   9.815  0.00  0.00     0.152 C 
BRANCH  25  26
ATOM     26  N   LIG d   1      -1.744 -23.546  10.214  0.00  0.00    -0.261 NA
ATOM     27  C   LIG d   1      -2.830 -23.396  10.884  0.00  0.00     0.197 C 
ATOM     28  N   LIG d   1      -3.220 -22.139  11.248  0.00  0.00    -0.190 NA
ATOM     29  N   LIG d   1      -3.647 -24.382  11.339  0.00  0.00    -0.271 NA
ATOM     30  C   LIG d   1      -2.911 -21.088  10.548  0.00  0.00     0.180 C 
ATOM     31  N   LIG d   1      -3.313 -19.870  11.016  0.00  0.00    -0.331 N 
ATOM     32  N   LIG d   1      -2.151 -21.060   9.419  0.00  0.00    -0.272 NA
ATOM     33  H   LIG d   1      -3.790 -19.949  11.907  0.00  0.00     0.168 HD
ATOM     34  H   LIG d   1      -1.664 -21.954   9.307  0.00  0.00     0.127 HD
ATOM     35  H   LIG d   1      -1.490 -20.292   9.420  0.00  0.00     0.127 HD
ATOM     36  H   LIG d   1      -3.172 -25.230  11.608  0.00  0.00     0.127 HD
ATOM     37  H   LIG d   1      -4.256 -24.029  12.067  0.00  0.00     0.127 HD
BRANCH  31  38
ATOM     38  C   LIG d   1      -3.641 -18.684  10.329  0.00  0.00     0.034 A 
ATOM     39  C   LIG d   1      -3.019 -17.492  10.739  0.00  0.00     0.031 A 
ATOM     40  C   LIG d   1      -3.252 -16.284  10.072  0.00  0.00     0.026 A 
ATOM     41  C   LIG d   1      -4.110 -16.257   8.978  0.00  0.00     0.034 A 
ATOM     42 CL   LIG d   1      -4.397 -14.777   8.151  0.00  0.00    -0.084 Cl
ATOM     43  C   LIG d   1      -4.731 -17.425   8.549  0.00  0.00     0.026 A 
ATOM     44  C   LIG d   1      -4.493 -18.630   9.219  0.00  0.00     0.031 A 
ENDBRANCH  31  38
ENDBRANCH  25  26
ENDBRANCH  24  25
ENDBRANCH   1  24
TORSDOF 9
ENDMDL
MODEL 5
REMARK VINA RESULT:      -7.3      4.159      7.948
REMARK  9 active torsions:
REMARK  status: ('A' for Active; 'I' for Inactive)
REMARK    1  A    between atoms: N_3  and  C_17 
REMARK    2  A    between atoms: N_4  and  C_18 
REMARK       I    between atoms: N_5  and  C_19 
REMARK       I    between atoms: N_6  and  C_20 
REMARK       I    between atoms: N_7  and  C_19 
REMARK       I    between atoms: N_8  and  C_20 
REMARK       I    between atoms: N_9  and  C_21 
REMARK    3  A    between atoms: N_9  and  C_23 
REMARK       I    between atoms: N_10  and  C_22 
REMARK    4  A    between atoms: N_10  and  C_24 
REMARK       I    between atoms: N_11  and  C_21 
REMARK       I    between atoms: N_12  and  C_22 
REMARK    5  A    between atoms: C_13  and  C_14 
REMARK    6  A    between atoms: C_13  and  C_15 
REMARK    7  A    between atoms: C_14  and  C_16 
REMARK    8  A    between atoms: C_15  and  C_17 
REMARK    9  A    between atoms: C_16  and  C_18 
ROOT
ATOM      1  C   LIG d   1       9.871  27.781   1.889  0.00  0.00     0.002 C 
ENDROOT
BRANCH   1   2
ATOM      2  C   LIG d   1      10.631  27.841   3.214  0.00  0.00     0.002 C 
BRANCH   2   3
ATOM      3  C   LIG d   1      12.134  27.658   2.999  0.00  0.00     0.022 C 
BRANCH   3   4
ATOM      4  C   LIG d   1      12.752  26.807   4.107  0.00  0.00     0.152 C 
BRANCH   4   5
ATOM      5  N   LIG d   1      12.492  25.394   3.845  0.00  0.00    -0.261 NA
ATOM      6  C   LIG d   1      13.389  24.514   4.111  0.00  0.00     0.197 C 
ATOM      7  N   LIG d   1      13.101  23.205   3.871  0.00  0.00    -0.190 NA
ATOM      8  N   LIG d   1      14.612  24.724   4.663  0.00  0.00    -0.271 NA
ATOM      9  C   LIG d   1      12.437  22.836   2.825  0.00  0.00     0.180 C 
ATOM     10  N   LIG d   1      12.124  21.540   2.504  0.00  0.00    -0.331 N 
ATOM     11  N   LIG d   1      11.959  23.656   1.840  0.00  0.00    -0.272 NA
ATOM     12  H   LIG d   1      12.107  21.368   1.509  0.00  0.00     0.168 HD
ATOM     13  H   LIG d   1      12.002  24.626   2.170  0.00  0.00     0.127 HD
ATOM     14  H   LIG d   1      10.993  23.447   1.614  0.00  0.00     0.127 HD
ATOM     15  H   LIG d   1      14.628  25.434   5.379  0.00  0.00     0.127 HD
ATOM     16  H   LIG d   1      14.994  23.845   4.992  0.00  0.00     0.127 HD
BRANCH  10  17
ATOM     17  C   LIG d   1      12.270  20.391   3.301  0.00  0.00     0.034 A 
ATOM     18  C   LIG d   1      11.125  19.673   3.682  0.00  0.00     0.031 A 
ATOM     19  C   LIG d   1      11.219  18.536   4.492  0.00  0.00     0.026 A 
ATOM     20  C   LIG d   1      12.464  18.110   4.941  0.00  0.00     0.034 A 
ATOM     21 CL   LIG d   1      12.585  16.716   5.942  0.00  0.00    -0.084 Cl
ATOM     22  C   LIG d   1      13.611  18.811   4.589  0.00  0.00     0.026 A 
ATOM     23  C   LIG d   1      13.511  19.945   3.777  0.00  0.00     0.031 A 
ENDBRANCH  10  17
ENDBRANCH   4   5
ENDBRANCH   3   4
ENDBRANCH   2   3
ENDBRANCH   1   2
BRANCH   1  24
ATOM     24  C   LIG d   1       9.409  26.358   1.577  0.00  0.00     0.022 C 
BRANCH  24  25
ATOM     25  C   LIG d   1       9.550  26.042   0.088  0.00  0.00     0.152 C 
BRANCH  25  26
ATOM     26  N   LIG d   1       9.697  24.603  -0.113  0.00  0.00    -0.261 NA
ATOM     27  C   LIG d   1       9.180  24.037  -1.145  0.00  0.00     0.197 C 
ATOM     28  N   LIG d   1       9.333  22.690  -1.313  0.00  0.00    -0.190 NA
ATOM     29  N   LIG d   1       8.516  24.650  -2.160  0.00  0.00    -0.271 NA
ATOM     30  C   LIG d   1       9.468  21.879  -0.307  0.00  0.00     0.180 C 
ATOM     31  N   LIG d   1       9.655  20.554  -0.579  0.00  0.00    -0.331 N 
ATOM     32  N   LIG d   1       9.519  22.218   1.010  0.00  0.00    -0.272 NA
ATOM     33  H   LIG d   1       9.704  20.378  -1.577  0.00  0.00     0.168 HD
ATOM     34  H   LIG d   1       9.659  23.229   1.101  0.00  0.00     0.127 HD
ATOM     35  H   LIG d   1      10.240  21.712   1.510  0.00  0.00     0.127 HD
ATOM     36  H   LIG d   1       8.853  25.573  -2.386  0.00  0.00     0.127 HD
ATOM     37  H   LIG d   1       8.470  24.043  -2.969  0.00  0.00     0.127 HD
BRANCH  31  38
ATOM     38  C   LIG d   1       9.301  19.405   0.156  0.00  0.00     0.034 A 
ATOM     39  C   LIG d   1       7.958  19.255   0.540  0.00  0.00     0.031 A 
ATOM     40  C   LIG d   1       7.520  18.116   1.225  0.00  0.00     0.026 A 
ATOM     41  C   LIG d   1       8.426  17.106   1.529  0.00  0.00     0.034 A 
ATOM     42 CL   LIG d   1       7.895  15.702   2.367  0.00  0.00    -0.084 Cl
ATOM     43  C   LIG d   1       9.760  17.228   1.154  0.00  0.00     0.026 A 
ATOM     44  C   LIG d   1      10.191  18.369   0.468  0.00  0.00     0.031 A 
ENDBRANCH  31  38
ENDBRANCH  25  26
ENDBRANCH  24  25
ENDBRANCH   1  24
TORSDOF 9
ENDMDL
MODEL 6
REMARK VINA RESULT:      -7.2      3.275      6.744
REMARK  9 active torsions:
REMARK  status: ('A' for Active; 'I' for Inactive)
REMARK    1  A    between atoms: N_3  and  C_17 
REMARK    2  A    between atoms: N_4  and  C_18 
REMARK       I    between atoms: N_5  and  C_19 
REMARK       I    between atoms: N_6  and  C_20 
REMARK       I    between atoms: N_7  and  C_19 
REMARK       I    between atoms: N_8  and  C_20 
REMARK       I    between atoms: N_9  and  C_21 
REMARK    3  A    between atoms: N_9  and  C_23 
REMARK       I    between atoms: N_10  and  C_22 
REMARK    4  A    between atoms: N_10  and  C_24 
REMARK       I    between atoms: N_11  and  C_21 
REMARK       I    between atoms: N_12  and  C_22 
REMARK    5  A    between atoms: C_13  and  C_14 
REMARK    6  A    between atoms: C_13  and  C_15 
REMARK    7  A    between atoms: C_14  and  C_16 
REMARK    8  A    between atoms: C_15  and  C_17 
REMARK    9  A    between atoms: C_16  and  C_18 
ROOT
ATOM      1  C   LIG d   1      10.200  16.767   6.255  0.00  0.00     0.002 C 
ENDROOT
BRANCH   1   2
ATOM      2  C   LIG d   1      11.165  17.282   7.325  0.00  0.00     0.002 C 
BRANCH   2   3
ATOM      3  C   LIG d   1      12.277  16.270   7.602  0.00  0.00     0.022 C 
BRANCH   3   4
ATOM      4  C   LIG d   1      13.625  16.775   7.093  0.00  0.00     0.152 C 
BRANCH   4   5
ATOM      5  N   LIG d   1      13.495  18.158   6.642  0.00  0.00    -0.261 NA
ATOM      6  C   LIG d   1      13.616  18.444   5.396  0.00  0.00     0.197 C 
ATOM      7  N   LIG d   1      13.468  19.742   5.012  0.00  0.00    -0.190 NA
ATOM      8  N   LIG d   1      13.833  17.581   4.369  0.00  0.00    -0.271 NA
ATOM      9  C   LIG d   1      13.936  20.717   5.721  0.00  0.00     0.180 C 
ATOM     10  N   LIG d   1      13.845  22.046   5.394  0.00  0.00    -0.331 N 
ATOM     11  N   LIG d   1      14.628  20.603   6.895  0.00  0.00    -0.272 NA
ATOM     12  H   LIG d   1      14.641  22.587   5.699  0.00  0.00     0.168 HD
ATOM     13  H   LIG d   1      14.520  19.647   7.249  0.00  0.00     0.127 HD
ATOM     14  H   LIG d   1      14.275  21.239   7.602  0.00  0.00     0.127 HD
ATOM     15  H   LIG d   1      13.349  16.700   4.458  0.00  0.00     0.127 HD
ATOM     16  H   LIG d   1      13.629  18.038   3.488  0.00  0.00     0.127 HD
BRANCH  10  17
ATOM     17  C   LIG d   1      13.084  22.636   4.370  0.00  0.00     0.034 A 
ATOM     18  C   LIG d   1      13.225  24.010   4.120  0.00  0.00     0.031 A 
ATOM     19  C   LIG d   1      12.473  24.646   3.125  0.00  0.00     0.026 A 
ATOM     20  C   LIG d   1      11.561  23.912   2.374  0.00  0.00     0.034 A 
ATOM     21 CL   LIG d   1      10.631  24.689   1.153  0.00  0.00    -0.084 Cl
ATOM     22  C   LIG d   1      11.394  22.552   2.612  0.00  0.00     0.026 A 
ATOM     23  C   LIG d   1      12.150  21.923   3.606  0.00  0.00     0.031 A 
ENDBRANCH  10  17
ENDBRANCH   4   5
ENDBRANCH   3   4
ENDBRANCH   2   3
ENDBRANCH   1   2
BRANCH   1  24
ATOM     24  C   LIG d   1      10.806  15.601   5.475  0.00  0.00     0.022 C 
BRANCH  24  25
ATOM     25  C   LIG d   1       9.751  14.894   4.625  0.00  0.00     0.152 C 
BRANCH  25  26
ATOM     26  N   LIG d   1       9.484  15.659   3.410  0.00  0.00    -0.261 NA
ATOM     27  C   LIG d   1      10.315  15.627   2.429  0.00  0.00     0.197 C 
ATOM     28  N   LIG d   1      10.042  16.347   1.301  0.00  0.00    -0.190 NA
ATOM     29  N   LIG d   1      11.454  14.890   2.352  0.00  0.00    -0.271 NA
ATOM     30  C   LIG d   1       9.340  17.440   1.332  0.00  0.00     0.180 C 
ATOM     31  N   LIG d   1       9.088  18.069   0.146  0.00  0.00    -0.331 N 
ATOM     32  N   LIG d   1       8.754  17.999   2.426  0.00  0.00    -0.272 NA
ATOM     33  H   LIG d   1       9.468  17.553  -0.640  0.00  0.00     0.168 HD
ATOM     34  H   LIG d   1       8.751  17.326   3.198  0.00  0.00     0.127 HD
ATOM     35  H   LIG d   1       7.815  18.326   2.234  0.00  0.00     0.127 HD
ATOM     36  H   LIG d   1      11.408  13.995   2.814  0.00  0.00     0.127 HD
ATOM     37  H   LIG d   1      11.764  14.816   1.391  0.00  0.00     0.127 HD
BRANCH  31  38
ATOM     38  C   LIG d   1       8.883  19.431  -0.148  0.00  0.00     0.034 A 
ATOM     39  C   LIG d   1       7.559  19.891  -0.257  0.00  0.00     0.031 A 
ATOM     40  C   LIG d   1       7.275  21.240  -0.493  0.00  0.00     0.026 A 
ATOM     41  C   LIG d   1       8.319  22.151  -0.616  0.00  0.00     0.034 A 
ATOM     42 CL   LIG d   1       7.976  23.812  -0.902  0.00  0.00    -0.084 Cl
ATOM     43  C   LIG d   1       9.637  21.722  -0.504  0.00  0.00     0.026 A 
ATOM     44  C   LIG d   1       9.914  20.371  -0.267  0.00  0.00     0.031 A 
ENDBRANCH  31  38
ENDBRANCH  25  26
ENDBRANCH  24  25
ENDBRANCH   1  24
TORSDOF 9
ENDMDL
MODEL 7
REMARK VINA RESULT:      -7.2     21.592     25.568
REMARK  9 active torsions:
REMARK  status: ('A' for Active; 'I' for Inactive)
REMARK    1  A    between atoms: N_3  and  C_17 
REMARK    2  A    between atoms: N_4  and  C_18 
REMARK       I    between atoms: N_5  and  C_19 
REMARK       I    between atoms: N_6  and  C_20 
REMARK       I    between atoms: N_7  and  C_19 
REMARK       I    between atoms: N_8  and  C_20 
REMARK       I    between atoms: N_9  and  C_21 
REMARK    3  A    between atoms: N_9  and  C_23 
REMARK       I    between atoms: N_10  and  C_22 
REMARK    4  A    between atoms: N_10  and  C_24 
REMARK       I    between atoms: N_11  and  C_21 
REMARK       I    between atoms: N_12  and  C_22 
REMARK    5  A    between atoms: C_13  and  C_14 
REMARK    6  A    between atoms: C_13  and  C_15 
REMARK    7  A    between atoms: C_14  and  C_16 
REMARK    8  A    between atoms: C_15  and  C_17 
REMARK    9  A    between atoms: C_16  and  C_18 
ROOT
ATOM      1  C   LIG d   1      15.567  -0.745  -6.768  0.00  0.00     0.002 C 
ENDROOT
BRANCH   1   2
ATOM      2  C   LIG d   1      14.297  -1.290  -7.423  0.00  0.00     0.002 C 
BRANCH   2   3
ATOM      3  C   LIG d   1      14.098  -2.770  -7.097  0.00  0.00     0.022 C 
BRANCH   3   4
ATOM      4  C   LIG d   1      14.519  -3.656  -8.268  0.00  0.00     0.152 C 
BRANCH   4   5
ATOM      5  N   LIG d   1      13.920  -3.159  -9.503  0.00  0.00    -0.261 NA
ATOM      6  C   LIG d   1      14.659  -2.617 -10.404  0.00  0.00     0.197 C 
ATOM      7  N   LIG d   1      14.066  -2.184 -11.551  0.00  0.00    -0.190 NA
ATOM      8  N   LIG d   1      16.007  -2.459 -10.380  0.00  0.00    -0.271 NA
ATOM      9  C   LIG d   1      12.910  -1.604 -11.540  0.00  0.00     0.180 C 
ATOM     10  N   LIG d   1      12.257  -1.124 -12.646  0.00  0.00    -0.331 N 
ATOM     11  N   LIG d   1      12.149  -1.337 -10.435  0.00  0.00    -0.272 NA
ATOM     12  H   LIG d   1      11.707  -0.298 -12.457  0.00  0.00     0.168 HD
ATOM     13  H   LIG d   1      12.522  -1.870  -9.643  0.00  0.00     0.127 HD
ATOM     14  H   LIG d   1      11.183  -1.614 -10.569  0.00  0.00     0.127 HD
ATOM     15  H   LIG d   1      16.508  -3.230  -9.966  0.00  0.00     0.127 HD
ATOM     16  H   LIG d   1      16.344  -2.243 -11.311  0.00  0.00     0.127 HD
BRANCH  10  17
ATOM     17  C   LIG d   1      12.584  -1.321 -13.999  0.00  0.00     0.034 A 
ATOM     18  C   LIG d   1      13.723  -0.691 -14.526  0.00  0.00     0.031 A 
ATOM     19  C   LIG d   1      14.076  -0.841 -15.871  0.00  0.00     0.026 A 
ATOM     20  C   LIG d   1      13.284  -1.616 -16.711  0.00  0.00     0.034 A 
ATOM     21 CL   LIG d   1      13.711  -1.798 -18.367  0.00  0.00    -0.084 Cl
ATOM     22  C   LIG d   1      12.143  -2.238 -16.217  0.00  0.00     0.026 A 
ATOM     23  C   LIG d   1      11.797  -2.087 -14.870  0.00  0.00     0.031 A 
ENDBRANCH  10  17
ENDBRANCH   4   5
ENDBRANCH   3   4
ENDBRANCH   2   3
ENDBRANCH   1   2
BRANCH   1  24
ATOM     24  C   LIG d   1      15.266   0.479  -5.904  0.00  0.00     0.022 C 
BRANCH  24  25
ATOM     25  C   LIG d   1      14.785   0.071  -4.512  0.00  0.00     0.152 C 
BRANCH  25  26
ATOM     26  N   LIG d   1      15.418  -1.180  -4.103  0.00  0.00    -0.261 NA
ATOM     27  C   LIG d   1      15.713  -1.383  -2.869  0.00  0.00     0.197 C 
ATOM     28  N   LIG d   1      16.302  -2.562  -2.510  0.00  0.00    -0.190 NA
ATOM     29  N   LIG d   1      15.451  -0.554  -1.824  0.00  0.00    -0.271 NA
ATOM     30  C   LIG d   1      17.056  -3.235  -3.326  0.00  0.00     0.180 C 
ATOM     31  N   LIG d   1      17.568  -4.422  -2.887  0.00  0.00    -0.331 N 
ATOM     32  N   LIG d   1      17.339  -2.918  -4.619  0.00  0.00    -0.272 NA
ATOM     33  H   LIG d   1      17.244  -4.649  -1.953  0.00  0.00     0.168 HD
ATOM     34  H   LIG d   1      16.699  -2.188  -4.944  0.00  0.00     0.127 HD
ATOM     35  H   LIG d   1      17.298  -3.725  -5.230  0.00  0.00     0.127 HD
ATOM     36  H   LIG d   1      14.595  -0.029  -1.907  0.00  0.00     0.127 HD
ATOM     37  H   LIG d   1      15.515  -1.059  -0.948  0.00  0.00     0.127 HD
BRANCH  31  38
ATOM     38  C   LIG d   1      18.763  -5.089  -3.223  0.00  0.00     0.034 A 
ATOM     39  C   LIG d   1      18.669  -6.276  -3.969  0.00  0.00     0.031 A 
ATOM     40  C   LIG d   1      19.813  -6.965  -4.386  0.00  0.00     0.026 A 
ATOM     41  C   LIG d   1      21.071  -6.468  -4.064  0.00  0.00     0.034 A 
ATOM     42 CL   LIG d   1      22.481  -7.307  -4.577  0.00  0.00    -0.084 Cl
ATOM     43  C   LIG d   1      21.190  -5.291  -3.333  0.00  0.00     0.026 A 
ATOM     44  C   LIG d   1      20.042  -4.606  -2.920  0.00  0.00     0.031 A 
ENDBRANCH  31  38
ENDBRANCH  25  26
ENDBRANCH  24  25
ENDBRANCH   1  24
TORSDOF 9
ENDMDL
MODEL 8
REMARK VINA RESULT:      -7.1      5.624      7.783
REMARK  9 active torsions:
REMARK  status: ('A' for Active; 'I' for Inactive)
REMARK    1  A    between atoms: N_3  and  C_17 
REMARK    2  A    between atoms: N_4  and  C_18 
REMARK       I    between atoms: N_5  and  C_19 
REMARK       I    between atoms: N_6  and  C_20 
REMARK       I    between atoms: N_7  and  C_19 
REMARK       I    between atoms: N_8  and  C_20 
REMARK       I    between atoms: N_9  and  C_21 
REMARK    3  A    between atoms: N_9  and  C_23 
REMARK       I    between atoms: N_10  and  C_22 
REMARK    4  A    between atoms: N_10  and  C_24 
REMARK       I    between atoms: N_11  and  C_21 
REMARK       I    between atoms: N_12  and  C_22 
REMARK    5  A    between atoms: C_13  and  C_14 
REMARK    6  A    between atoms: C_13  and  C_15 
REMARK    7  A    between atoms: C_14  and  C_16 
REMARK    8  A    between atoms: C_15  and  C_17 
REMARK    9  A    between atoms: C_16  and  C_18 
ROOT
ATOM      1  C   LIG d   1       6.109  14.460   4.032  0.00  0.00     0.002 C 
ENDROOT
BRANCH   1   2
ATOM      2  C   LIG d   1       6.057  13.450   2.885  0.00  0.00     0.002 C 
BRANCH   2   3
ATOM      3  C   LIG d   1       5.887  12.025   3.410  0.00  0.00     0.022 C 
BRANCH   3   4
ATOM      4  C   LIG d   1       4.412  11.672   3.589  0.00  0.00     0.152 C 
BRANCH   4   5
ATOM      5  N   LIG d   1       4.279  10.253   3.906  0.00  0.00    -0.261 NA
ATOM      6  C   LIG d   1       3.668   9.886   4.974  0.00  0.00     0.197 C 
ATOM      7  N   LIG d   1       3.547   8.553   5.225  0.00  0.00    -0.190 NA
ATOM      8  N   LIG d   1       3.063  10.683   5.893  0.00  0.00    -0.271 NA
ATOM      9  C   LIG d   1       4.510   7.727   4.979  0.00  0.00     0.180 C 
ATOM     10  N   LIG d   1       4.474   6.377   5.221  0.00  0.00    -0.331 N 
ATOM     11  N   LIG d   1       5.739   8.045   4.470  0.00  0.00    -0.272 NA
ATOM     12  H   LIG d   1       5.372   5.995   5.483  0.00  0.00     0.168 HD
ATOM     13  H   LIG d   1       5.703   8.999   4.097  0.00  0.00     0.127 HD
ATOM     14  H   LIG d   1       6.005   7.424   3.714  0.00  0.00     0.127 HD
ATOM     15  H   LIG d   1       2.588  11.482   5.502  0.00  0.00     0.127 HD
ATOM     16  H   LIG d   1       2.451  10.127   6.479  0.00  0.00     0.127 HD
BRANCH  10  17
ATOM     17  C   LIG d   1       3.367   5.591   5.584  0.00  0.00     0.034 A 
ATOM     18  C   LIG d   1       3.281   5.094   6.894  0.00  0.00     0.031 A 
ATOM     19  C   LIG d   1       2.209   4.290   7.295  0.00  0.00     0.026 A 
ATOM     20  C   LIG d   1       1.211   3.964   6.382  0.00  0.00     0.034 A 
ATOM     21 CL   LIG d   1      -0.106   2.971   6.869  0.00  0.00    -0.084 Cl
ATOM     22  C   LIG d   1       1.280   4.432   5.076  0.00  0.00     0.026 A 
ATOM     23  C   LIG d   1       2.353   5.238   4.682  0.00  0.00     0.031 A 
ENDBRANCH  10  17
ENDBRANCH   4   5
ENDBRANCH   3   4
ENDBRANCH   2   3
ENDBRANCH   1   2
BRANCH   1  24
ATOM     24  C   LIG d   1       7.420  15.246   4.022  0.00  0.00     0.022 C 
BRANCH  24  25
ATOM     25  C   LIG d   1       8.375  14.718   2.953  0.00  0.00     0.152 C 
BRANCH  25  26
ATOM     26  N   LIG d   1       8.801  15.803   2.073  0.00  0.00    -0.261 NA
ATOM     27  C   LIG d   1      10.046  15.958   1.792  0.00  0.00     0.197 C 
ATOM     28  N   LIG d   1      10.420  16.979   0.965  0.00  0.00    -0.190 NA
ATOM     29  N   LIG d   1      11.074  15.165   2.192  0.00  0.00    -0.271 NA
ATOM     30  C   LIG d   1       9.743  18.084   0.881  0.00  0.00     0.180 C 
ATOM     31  N   LIG d   1      10.176  19.030  -0.005  0.00  0.00    -0.331 N 
ATOM     32  N   LIG d   1       8.586  18.381   1.534  0.00  0.00    -0.272 NA
ATOM     33  H   LIG d   1      10.983  18.712  -0.529  0.00  0.00     0.168 HD
ATOM     34  H   LIG d   1       8.191  17.528   1.941  0.00  0.00     0.127 HD
ATOM     35  H   LIG d   1       7.910  18.834   0.932  0.00  0.00     0.127 HD
ATOM     36  H   LIG d   1      10.843  14.187   2.276  0.00  0.00     0.127 HD
ATOM     37  H   LIG d   1      11.890  15.324   1.614  0.00  0.00     0.127 HD
BRANCH  31  38
ATOM     38  C   LIG d   1      10.067  20.434   0.023  0.00  0.00     0.034 A 
ATOM     39  C   LIG d   1      11.055  21.159   0.711  0.00  0.00     0.031 A 
ATOM     40  C   LIG d   1      11.043  22.558   0.738  0.00  0.00     0.026 A 
ATOM     41  C   LIG d   1      10.042  23.251   0.066  0.00  0.00     0.034 A 
ATOM     42 CL   LIG d   1      10.026  24.970   0.091  0.00  0.00    -0.084 Cl
ATOM     43  C   LIG d   1       9.058  22.556  -0.628  0.00  0.00     0.026 A 
ATOM     44  C   LIG d   1       9.075  21.157  -0.652  0.00  0.00     0.031 A 
ENDBRANCH  31  38
ENDBRANCH  25  26
ENDBRANCH  24  25
ENDBRANCH   1  24
TORSDOF 9
ENDMDL
MODEL 9
REMARK VINA RESULT:      -7.1     13.326     17.075
REMARK  9 active torsions:
REMARK  status: ('A' for Active; 'I' for Inactive)
REMARK    1  A    between atoms: N_3  and  C_17 
REMARK    2  A    between atoms: N_4  and  C_18 
REMARK       I    between atoms: N_5  and  C_19 
REMARK       I    between atoms: N_6  and  C_20 
REMARK       I    between atoms: N_7  and  C_19 
REMARK       I    between atoms: N_8  and  C_20 
REMARK       I    between atoms: N_9  and  C_21 
REMARK    3  A    between atoms: N_9  and  C_23 
REMARK       I    between atoms: N_10  and  C_22 
REMARK    4  A    between atoms: N_10  and  C_24 
REMARK       I    between atoms: N_11  and  C_21 
REMARK       I    between atoms: N_12  and  C_22 
REMARK    5  A    between atoms: C_13  and  C_14 
REMARK    6  A    between atoms: C_13  and  C_15 
REMARK    7  A    between atoms: C_14  and  C_16 
REMARK    8  A    between atoms: C_15  and  C_17 
REMARK    9  A    between atoms: C_16  and  C_18 
ROOT
ATOM      1  C   LIG d   1      26.045  11.339  -2.927  0.00  0.00     0.002 C 
ENDROOT
BRANCH   1   2
ATOM      2  C   LIG d   1      25.750  12.807  -2.619  0.00  0.00     0.002 C 
BRANCH   2   3
ATOM      3  C   LIG d   1      26.967  13.502  -2.010  0.00  0.00     0.022 C 
BRANCH   3   4
ATOM      4  C   LIG d   1      27.138  13.131  -0.538  0.00  0.00     0.152 C 
BRANCH   4   5
ATOM      5  N   LIG d   1      26.116  13.802   0.261  0.00  0.00    -0.261 NA
ATOM      6  C   LIG d   1      26.429  14.812   0.989  0.00  0.00     0.197 C 
ATOM      7  N   LIG d   1      25.444  15.423   1.704  0.00  0.00    -0.190 NA
ATOM      8  N   LIG d   1      27.648  15.401   1.105  0.00  0.00    -0.271 NA
ATOM      9  C   LIG d   1      24.511  14.747   2.290  0.00  0.00     0.180 C 
ATOM     10  N   LIG d   1      23.498  15.285   3.042  0.00  0.00    -0.331 N 
ATOM     11  N   LIG d   1      24.382  13.385   2.296  0.00  0.00    -0.272 NA
ATOM     12  H   LIG d   1      23.213  14.693   3.810  0.00  0.00     0.168 HD
ATOM     13  H   LIG d   1      24.999  12.993   1.578  0.00  0.00     0.127 HD
ATOM     14  H   LIG d   1      23.434  13.097   2.084  0.00  0.00     0.127 HD
ATOM     15  H   LIG d   1      28.172  15.442   0.244  0.00  0.00     0.127 HD
ATOM     16  H   LIG d   1      27.549  16.313   1.534  0.00  0.00     0.127 HD
BRANCH  10  17
ATOM     17  C   LIG d   1      23.143  16.638   3.175  0.00  0.00     0.034 A 
ATOM     18  C   LIG d   1      22.373  17.244   2.169  0.00  0.00     0.031 A 
ATOM     19  C   LIG d   1      22.013  18.595   2.247  0.00  0.00     0.026 A 
ATOM     20  C   LIG d   1      22.431  19.359   3.331  0.00  0.00     0.034 A 
ATOM     21 CL   LIG d   1      21.997  21.020   3.429  0.00  0.00    -0.084 Cl
ATOM     22  C   LIG d   1      23.206  18.785   4.333  0.00  0.00     0.026 A 
ATOM     23  C   LIG d   1      23.560  17.435   4.250  0.00  0.00     0.031 A 
ENDBRANCH  10  17
ENDBRANCH   4   5
ENDBRANCH   3   4
ENDBRANCH   2   3
ENDBRANCH   1   2
BRANCH   1  24
ATOM     24  C   LIG d   1      24.895  10.435  -2.484  0.00  0.00     0.022 C 
BRANCH  24  25
ATOM     25  C   LIG d   1      23.673  11.254  -2.070  0.00  0.00     0.152 C 
BRANCH  25  26
ATOM     26  N   LIG d   1      22.453  10.476  -2.263  0.00  0.00    -0.261 NA
ATOM     27  C   LIG d   1      21.879   9.912  -1.261  0.00  0.00     0.197 C 
ATOM     28  N   LIG d   1      20.737   9.192  -1.465  0.00  0.00    -0.190 NA
ATOM     29  N   LIG d   1      22.256   9.992   0.042  0.00  0.00    -0.271 NA
ATOM     30  C   LIG d   1      20.490   8.592  -2.591  0.00  0.00     0.180 C 
ATOM     31  N   LIG d   1      19.302   7.930  -2.712  0.00  0.00    -0.331 N 
ATOM     32  N   LIG d   1      21.266   8.612  -3.709  0.00  0.00    -0.272 NA
ATOM     33  H   LIG d   1      18.728   8.032  -1.882  0.00  0.00     0.168 HD
ATOM     34  H   LIG d   1      21.973   9.348  -3.627  0.00  0.00     0.127 HD
ATOM     35  H   LIG d   1      20.719   8.735  -4.553  0.00  0.00     0.127 HD
ATOM     36  H   LIG d   1      22.661  10.876   0.310  0.00  0.00     0.127 HD
ATOM     37  H   LIG d   1      21.495   9.713   0.649  0.00  0.00     0.127 HD
BRANCH  31  38
ATOM     38  C   LIG d   1      18.954   6.797  -3.475  0.00  0.00     0.034 A 
ATOM     39  C   LIG d   1      17.788   6.861  -4.257  0.00  0.00     0.031 A 
ATOM     40  C   LIG d   1      17.406   5.797  -5.081  0.00  0.00     0.026 A 
ATOM     41  C   LIG d   1      18.195   4.654  -5.138  0.00  0.00     0.034 A 
ATOM     42 CL   LIG d   1      17.734   3.345  -6.153  0.00  0.00    -0.084 Cl
ATOM     43  C   LIG d   1      19.358   4.569  -4.380  0.00  0.00     0.026 A 
ATOM     44  C   LIG d   1      19.734   5.638  -3.557  0.00  0.00     0.031 A 
ENDBRANCH  31  38
ENDBRANCH  25  26
ENDBRANCH  24  25
ENDBRANCH   1  24
TORSDOF 9
ENDMDL
