MODEL 1
REMARK minimizedAffinity -5.71841526REMARK CNNscore 0.434371859REMARK CNNaffinity 5.94317579REMARK  13 active torsions:
REMARK  status: ('A' for Active; 'I' for Inactive)
REMARK    1  A    between atoms: O_4  and  C_21 
REMARK    2  A    between atoms: O_4  and  C_27 
REMARK    3  A    between atoms: O_5  and  C_43 
REMARK    4  A    between atoms: N_7  and  C_19 
REMARK    5  A    between atoms: N_9  and  C_33 
REMARK    6  A    between atoms: N_10  and  C_39 
REMARK    7  A    between atoms: N_12  and  C_40 
REMARK    8  A    between atoms: N_13  and  C_44 
REMARK    9  A    between atoms: C_15  and  C_19 
REMARK   10  A    between atoms: C_15  and  C_20 
REMARK   11  A    between atoms: C_17  and  C_21 
REMARK   12  A    between atoms: C_40  and  C_45 
REMARK   13  A    between atoms: C_40  and  C_43 
ROOT
ATOM      1  F   LIG d   1      15.504  -0.874 -16.246  0.00  0.00    -0.204 F 
ATOM      2  F   LIG d   1      12.815  -0.381 -20.068  0.00  0.00    -0.204 F 
ATOM      3  C   LIG d   1      13.273  -1.685 -16.160  0.00  0.00     0.032 A 
ATOM      4  C   LIG d   1      14.318  -1.051 -16.845  0.00  0.00     0.141 A 
ATOM      5  C   LIG d   1      12.071  -1.904 -16.865  0.00  0.00     0.003 A 
ATOM      6  C   LIG d   1      14.169  -0.594 -18.152  0.00  0.00     0.059 A 
ATOM      7  C   LIG d   1      11.919  -1.470 -18.182  0.00  0.00     0.030 A 
ATOM      8  C   LIG d   1      12.967  -0.808 -18.809  0.00  0.00     0.142 A 
ENDROOT
BRANCH   3   9
ATOM      9  C   LIG d   1      13.438  -2.188 -14.726  0.00  0.00     0.136 C 
ATOM     10  O   LIG d   1      12.109  -2.279 -14.125  0.00  0.00    -0.353 OA
ATOM     11  C   LIG d   1      11.911  -1.105 -13.323  0.00  0.00     0.145 C 
ATOM     12  C   LIG d   1      13.244  -0.928 -12.634  0.00  0.00     0.063 C 
ATOM     13  C   LIG d   1      14.200  -1.209 -13.786  0.00  0.00     0.039 C 
BRANCH  12  14
ATOM     14  C   LIG d   1      13.336  -1.937 -11.487  0.00  0.00     0.151 C 
BRANCH  14  15
ATOM     15  O   LIG d   1      14.528  -2.719 -11.567  0.00  0.00    -0.331 OA
BRANCH  15  16
ATOM     16  C   LIG d   1      15.461  -2.420 -10.606  0.00  0.00     0.094 A 
ATOM     17  C   LIG d   1      15.185  -2.181  -9.266  0.00  0.00     0.026 A 
ATOM     18  C   LIG d   1      16.209  -1.856  -8.369  0.00  0.00     0.019 A 
ATOM     19  C   LIG d   1      17.551  -1.741  -8.760  0.00  0.00     0.056 A 
ATOM     20  C   LIG d   1      17.809  -2.038 -10.111  0.00  0.00     0.019 A 
ATOM     21  C   LIG d   1      16.786  -2.364 -11.022  0.00  0.00     0.026 A 
BRANCH  19  22
ATOM     22  N   LIG d   1      18.568  -1.419  -7.838  0.00  0.00    -0.345 N 
ATOM     23  C   LIG d   1      18.139  -1.019  -6.470  0.00  0.00     0.119 C 
ATOM     24  C   LIG d   1      19.319  -0.464  -5.640  0.00  0.00     0.101 C 
ATOM     25  N   LIG d   1      20.430  -1.439  -5.578  0.00  0.00    -0.249 NA
ATOM     26  C   LIG d   1      20.912  -1.771  -6.937  0.00  0.00     0.101 C 
ATOM     27  C   LIG d   1      19.765  -2.309  -7.817  0.00  0.00     0.119 C 
BRANCH  25  28
ATOM     28  C   LIG d   1      21.500  -1.107  -4.731  0.00  0.00     0.037 A 
ATOM     29  C   LIG d   1      22.620  -1.916  -4.544  0.00  0.00     0.013 A 
ATOM     30  C   LIG d   1      23.672  -1.519  -3.708  0.00  0.00     0.019 A 
ATOM     31  C   LIG d   1      23.649  -0.293  -3.032  0.00  0.00     0.070 A 
ATOM     32  C   LIG d   1      22.504   0.501  -3.186  0.00  0.00     0.019 A 
ATOM     33  C   LIG d   1      21.449   0.096  -4.017  0.00  0.00     0.013 A 
BRANCH  31  34
ATOM     34  N   LIG d   1      24.755   0.138  -2.261  0.00  0.00    -0.240 N 
ATOM     35  C   LIG d   1      25.169  -0.342  -1.026  0.00  0.00     0.352 A 
ATOM     36  O   LIG d   1      24.626  -1.171  -0.310  0.00  0.00    -0.244 OA
ATOM     37  N   LIG d   1      26.363   0.342  -0.743  0.00  0.00    -0.200 N 
ATOM     38  N   LIG d   1      26.626   1.261  -1.735  0.00  0.00    -0.144 NA
ATOM     39  C   LIG d   1      25.662   1.087  -2.582  0.00  0.00     0.207 A 
BRANCH  37  40
ATOM     40  C   LIG d   1      27.124   0.355   0.508  0.00  0.00     0.137 C 
BRANCH  40  41
ATOM     41  C   LIG d   1      27.992  -0.912   0.640  0.00  0.00     0.027 C 
ATOM     42  C   LIG d   1      27.563  -1.812   1.792  0.00  0.00     0.002 C 
ENDBRANCH  40  41
BRANCH  40  43
ATOM     43  C   LIG d   1      27.969   1.641   0.742  0.00  0.00     0.133 C 
ATOM     44  C   LIG d   1      29.463   1.379   0.902  0.00  0.00     0.034 C 
BRANCH  43  45
ATOM     45  O   LIG d   1      27.474   2.416   1.834  0.00  0.00    -0.383 OA
ATOM     46  H   LIG d   1      28.195   2.964   2.186  0.00  0.00     0.210 HD
ENDBRANCH  43  45
ENDBRANCH  40  43
ENDBRANCH  37  40
ENDBRANCH  31  34
ENDBRANCH  25  28
ENDBRANCH  19  22
ENDBRANCH  15  16
ENDBRANCH  14  15
ENDBRANCH  12  14
BRANCH   9  47
ATOM     47  C   LIG d   1      14.113  -3.579 -14.693  0.00  0.00     0.161 C 
BRANCH  47  48
ATOM     48  N   LIG d   1      13.209  -4.679 -14.434  0.00  0.00    -0.228 N 
ATOM     49  N   LIG d   1      12.467  -5.221 -15.419  0.00  0.00    -0.145 NA
ATOM     50  C   LIG d   1      11.818  -6.183 -14.757  0.00  0.00     0.221 A 
ATOM     51  N   LIG d   1      12.138  -6.300 -13.434  0.00  0.00    -0.201 NA
ATOM     52  C   LIG d   1      13.025  -5.347 -13.262  0.00  0.00     0.197 A 
ENDBRANCH  47  48
ENDBRANCH   9  47
ENDBRANCH   3   9
TORSDOF 13
ENDMDL
MODEL 2
REMARK minimizedAffinity -7.80414963REMARK CNNscore 0.392138749REMARK CNNaffinity 6.26839781REMARK  13 active torsions:
REMARK  status: ('A' for Active; 'I' for Inactive)
REMARK    1  A    between atoms: O_4  and  C_21 
REMARK    2  A    between atoms: O_4  and  C_27 
REMARK    3  A    between atoms: O_5  and  C_43 
REMARK    4  A    between atoms: N_7  and  C_19 
REMARK    5  A    between atoms: N_9  and  C_33 
REMARK    6  A    between atoms: N_10  and  C_39 
REMARK    7  A    between atoms: N_12  and  C_40 
REMARK    8  A    between atoms: N_13  and  C_44 
REMARK    9  A    between atoms: C_15  and  C_19 
REMARK   10  A    between atoms: C_15  and  C_20 
REMARK   11  A    between atoms: C_17  and  C_21 
REMARK   12  A    between atoms: C_40  and  C_45 
REMARK   13  A    between atoms: C_40  and  C_43 
ROOT
ATOM      1  F   LIG d   1       8.991  24.060  -1.131  0.00  0.00    -0.204 F 
ATOM      2  F   LIG d   1      10.118  27.673   1.655  0.00  0.00    -0.204 F 
ATOM      3  C   LIG d   1       9.236  23.649   1.196  0.00  0.00     0.032 A 
ATOM      4  C   LIG d   1       9.269  24.519   0.097  0.00  0.00     0.141 A 
ATOM      5  C   LIG d   1       9.470  24.202   2.472  0.00  0.00     0.003 A 
ATOM      6  C   LIG d   1       9.581  25.868   0.239  0.00  0.00     0.059 A 
ATOM      7  C   LIG d   1       9.761  25.558   2.626  0.00  0.00     0.030 A 
ATOM      8  C   LIG d   1       9.826  26.375   1.506  0.00  0.00     0.142 A 
ENDROOT
BRANCH   3   9
ATOM      9  C   LIG d   1       8.892  22.167   1.040  0.00  0.00     0.136 C 
ATOM     10  O   LIG d   1       9.514  21.442   2.145  0.00  0.00    -0.353 OA
ATOM     11  C   LIG d   1      10.728  20.855   1.652  0.00  0.00     0.145 C 
ATOM     12  C   LIG d   1      10.335  20.335   0.290  0.00  0.00     0.063 C 
ATOM     13  C   LIG d   1       9.498  21.498  -0.228  0.00  0.00     0.039 C 
BRANCH  12  14
ATOM     14  C   LIG d   1       9.548  19.035   0.475  0.00  0.00     0.151 C 
BRANCH  14  15
ATOM     15  O   LIG d   1      10.201  18.148   1.382  0.00  0.00    -0.331 OA
BRANCH  15  16
ATOM     16  C   LIG d   1       9.515  16.983   1.619  0.00  0.00     0.094 A 
ATOM     17  C   LIG d   1      10.079  15.799   2.077  0.00  0.00     0.026 A 
ATOM     18  C   LIG d   1       9.294  14.655   2.261  0.00  0.00     0.019 A 
ATOM     19  C   LIG d   1       7.918  14.627   1.990  0.00  0.00     0.056 A 
ATOM     20  C   LIG d   1       7.365  15.853   1.576  0.00  0.00     0.019 A 
ATOM     21  C   LIG d   1       8.146  17.009   1.386  0.00  0.00     0.026 A 
BRANCH  19  22
ATOM     22  N   LIG d   1       7.145  13.465   2.188  0.00  0.00    -0.345 N 
ATOM     23  C   LIG d   1       5.718  13.658   2.566  0.00  0.00     0.119 C 
ATOM     24  C   LIG d   1       5.052  12.328   2.987  0.00  0.00     0.101 C 
ATOM     25  N   LIG d   1       5.180  11.310   1.921  0.00  0.00    -0.249 NA
ATOM     26  C   LIG d   1       6.603  11.057   1.606  0.00  0.00     0.101 C 
ATOM     27  C   LIG d   1       7.323  12.360   1.201  0.00  0.00     0.119 C 
BRANCH  25  28
ATOM     28  C   LIG d   1       4.488  10.106   2.128  0.00  0.00     0.037 A 
ATOM     29  C   LIG d   1       5.052   8.982   2.732  0.00  0.00     0.013 A 
ATOM     30  C   LIG d   1       4.303   7.817   2.941  0.00  0.00     0.019 A 
ATOM     31  C   LIG d   1       2.958   7.730   2.562  0.00  0.00     0.070 A 
ATOM     32  C   LIG d   1       2.403   8.844   1.916  0.00  0.00     0.019 A 
ATOM     33  C   LIG d   1       3.159  10.007   1.701  0.00  0.00     0.013 A 
BRANCH  31  34
ATOM     34  N   LIG d   1       2.187   6.581   2.857  0.00  0.00    -0.240 N 
ATOM     35  C   LIG d   1       1.375   5.858   1.995  0.00  0.00     0.352 A 
ATOM     36  O   LIG d   1       1.089   6.104   0.831  0.00  0.00    -0.244 OA
ATOM     37  N   LIG d   1       0.919   4.762   2.745  0.00  0.00    -0.200 N 
ATOM     38  N   LIG d   1       1.376   4.855   4.042  0.00  0.00    -0.144 NA
ATOM     39  C   LIG d   1       2.106   5.925   4.035  0.00  0.00     0.207 A 
BRANCH  37  40
ATOM     40  C   LIG d   1      -0.108   3.782   2.383  0.00  0.00     0.137 C 
BRANCH  40  41
ATOM     41  C   LIG d   1       0.447   2.741   1.390  0.00  0.00     0.027 C 
ATOM     42  C   LIG d   1      -0.252   2.779   0.036  0.00  0.00     0.002 C 
ENDBRANCH  40  41
BRANCH  40  43
ATOM     43  C   LIG d   1      -0.799   3.088   3.594  0.00  0.00     0.133 C 
ATOM     44  C   LIG d   1      -1.782   1.990   3.199  0.00  0.00     0.034 C 
BRANCH  43  45
ATOM     45  O   LIG d   1      -1.421   4.031   4.467  0.00  0.00    -0.383 OA
ATOM     46  H   LIG d   1      -2.129   3.586   4.961  0.00  0.00     0.210 HD
ENDBRANCH  43  45
ENDBRANCH  40  43
ENDBRANCH  37  40
ENDBRANCH  31  34
ENDBRANCH  25  28
ENDBRANCH  19  22
ENDBRANCH  15  16
ENDBRANCH  14  15
ENDBRANCH  12  14
BRANCH   9  47
ATOM     47  C   LIG d   1       7.362  21.940   1.073  0.00  0.00     0.161 C 
BRANCH  47  48
ATOM     48  N   LIG d   1       6.707  22.087  -0.209  0.00  0.00    -0.228 N 
ATOM     49  N   LIG d   1       6.724  21.096  -1.121  0.00  0.00    -0.145 NA
ATOM     50  C   LIG d   1       6.006  21.639  -2.109  0.00  0.00     0.221 A 
ATOM     51  N   LIG d   1       5.511  22.886  -1.854  0.00  0.00    -0.201 NA
ATOM     52  C   LIG d   1       5.959  23.138  -0.645  0.00  0.00     0.197 A 
ENDBRANCH  47  48
ENDBRANCH   9  47
ENDBRANCH   3   9
TORSDOF 13
ENDMDL
MODEL 3
REMARK minimizedAffinity -6.98044157REMARK CNNscore 0.367596567REMARK CNNaffinity 6.10935068REMARK  13 active torsions:
REMARK  status: ('A' for Active; 'I' for Inactive)
REMARK    1  A    between atoms: O_4  and  C_21 
REMARK    2  A    between atoms: O_4  and  C_27 
REMARK    3  A    between atoms: O_5  and  C_43 
REMARK    4  A    between atoms: N_7  and  C_19 
REMARK    5  A    between atoms: N_9  and  C_33 
REMARK    6  A    between atoms: N_10  and  C_39 
REMARK    7  A    between atoms: N_12  and  C_40 
REMARK    8  A    between atoms: N_13  and  C_44 
REMARK    9  A    between atoms: C_15  and  C_19 
REMARK   10  A    between atoms: C_15  and  C_20 
REMARK   11  A    between atoms: C_17  and  C_21 
REMARK   12  A    between atoms: C_40  and  C_45 
REMARK   13  A    between atoms: C_40  and  C_43 
ROOT
ATOM      1  F   LIG d   1      -1.211  -0.712   9.589  0.00  0.00    -0.204 F 
ATOM      2  F   LIG d   1      -5.412  -2.801   9.320  0.00  0.00    -0.204 F 
ATOM      3  C   LIG d   1      -2.931   0.380   8.366  0.00  0.00     0.032 A 
ATOM      4  C   LIG d   1      -2.470  -0.701   9.130  0.00  0.00     0.141 A 
ATOM      5  C   LIG d   1      -4.285   0.368   7.970  0.00  0.00     0.003 A 
ATOM      6  C   LIG d   1      -3.291  -1.781   9.442  0.00  0.00     0.059 A 
ATOM      7  C   LIG d   1      -5.121  -0.700   8.297  0.00  0.00     0.030 A 
ATOM      8  C   LIG d   1      -4.612  -1.771   9.019  0.00  0.00     0.142 A 
ENDROOT
BRANCH   3   9
ATOM      9  C   LIG d   1      -2.030   1.568   8.026  0.00  0.00     0.136 C 
ATOM     10  O   LIG d   1      -2.704   2.366   7.004  0.00  0.00    -0.353 OA
ATOM     11  C   LIG d   1      -2.137   2.016   5.733  0.00  0.00     0.145 C 
ATOM     12  C   LIG d   1      -0.658   1.920   6.027  0.00  0.00     0.063 C 
ATOM     13  C   LIG d   1      -0.680   1.178   7.357  0.00  0.00     0.039 C 
BRANCH  12  14
ATOM     14  C   LIG d   1      -0.088   3.338   6.114  0.00  0.00     0.151 C 
BRANCH  14  15
ATOM     15  O   LIG d   1       1.037   3.401   6.991  0.00  0.00    -0.331 OA
BRANCH  15  16
ATOM     16  C   LIG d   1       1.863   4.475   6.767  0.00  0.00     0.094 A 
ATOM     17  C   LIG d   1       2.390   5.300   7.752  0.00  0.00     0.026 A 
ATOM     18  C   LIG d   1       3.204   6.388   7.415  0.00  0.00     0.019 A 
ATOM     19  C   LIG d   1       3.523   6.716   6.089  0.00  0.00     0.056 A 
ATOM     20  C   LIG d   1       3.018   5.833   5.116  0.00  0.00     0.019 A 
ATOM     21  C   LIG d   1       2.197   4.737   5.444  0.00  0.00     0.026 A 
BRANCH  19  22
ATOM     22  N   LIG d   1       4.350   7.813   5.773  0.00  0.00    -0.345 N 
ATOM     23  C   LIG d   1       5.499   7.554   4.863  0.00  0.00     0.119 C 
ATOM     24  C   LIG d   1       6.456   8.766   4.791  0.00  0.00     0.101 C 
ATOM     25  N   LIG d   1       5.730   9.991   4.385  0.00  0.00    -0.249 NA
ATOM     26  C   LIG d   1       4.641  10.294   5.339  0.00  0.00     0.101 C 
ATOM     27  C   LIG d   1       3.668   9.104   5.467  0.00  0.00     0.119 C 
BRANCH  25  28
ATOM     28  C   LIG d   1       6.520  11.127   4.144  0.00  0.00     0.037 A 
ATOM     29  C   LIG d   1       7.914  11.124   4.188  0.00  0.00     0.013 A 
ATOM     30  C   LIG d   1       8.652  12.282   3.909  0.00  0.00     0.019 A 
ATOM     31  C   LIG d   1       8.027  13.486   3.565  0.00  0.00     0.070 A 
ATOM     32  C   LIG d   1       6.625  13.500   3.562  0.00  0.00     0.019 A 
ATOM     33  C   LIG d   1       5.889  12.341   3.851  0.00  0.00     0.013 A 
BRANCH  31  34
ATOM     34  N   LIG d   1       8.783  14.625   3.197  0.00  0.00    -0.240 N 
ATOM     35  C   LIG d   1       8.923  15.813   3.899  0.00  0.00     0.352 A 
ATOM     36  O   LIG d   1       8.365  16.161   4.930  0.00  0.00    -0.244 OA
ATOM     37  N   LIG d   1       9.850  16.571   3.164  0.00  0.00    -0.200 N 
ATOM     38  N   LIG d   1      10.204  15.899   2.015  0.00  0.00    -0.144 NA
ATOM     39  C   LIG d   1       9.556  14.781   2.100  0.00  0.00     0.207 A 
BRANCH  37  40
ATOM     40  C   LIG d   1      10.225  17.974   3.354  0.00  0.00     0.137 C 
BRANCH  40  41
ATOM     41  C   LIG d   1       9.022  18.808   3.838  0.00  0.00     0.027 C 
ATOM     42  C   LIG d   1       8.132  19.287   2.698  0.00  0.00     0.002 C 
ENDBRANCH  40  41
BRANCH  40  43
ATOM     43  C   LIG d   1      11.466  18.197   4.267  0.00  0.00     0.133 C 
ATOM     44  C   LIG d   1      12.164  19.536   4.047  0.00  0.00     0.034 C 
BRANCH  43  45
ATOM     45  O   LIG d   1      12.399  17.121   4.175  0.00  0.00    -0.383 OA
ATOM     46  H   LIG d   1      13.280  17.443   4.428  0.00  0.00     0.210 HD
ENDBRANCH  43  45
ENDBRANCH  40  43
ENDBRANCH  37  40
ENDBRANCH  31  34
ENDBRANCH  25  28
ENDBRANCH  19  22
ENDBRANCH  15  16
ENDBRANCH  14  15
ENDBRANCH  12  14
BRANCH   9  47
ATOM     47  C   LIG d   1      -1.764   2.445   9.272  0.00  0.00     0.161 C 
BRANCH  47  48
ATOM     48  N   LIG d   1      -2.340   3.771   9.204  0.00  0.00    -0.228 N 
ATOM     49  N   LIG d   1      -3.635   3.987   9.502  0.00  0.00    -0.145 NA
ATOM     50  C   LIG d   1      -3.725   5.310   9.332  0.00  0.00     0.221 A 
ATOM     51  N   LIG d   1      -2.561   5.934   8.987  0.00  0.00    -0.201 NA
ATOM     52  C   LIG d   1      -1.702   4.942   8.925  0.00  0.00     0.197 A 
ENDBRANCH  47  48
ENDBRANCH   9  47
ENDBRANCH   3   9
TORSDOF 13
ENDMDL
MODEL 4
REMARK minimizedAffinity -6.83219385REMARK CNNscore 0.343533486REMARK CNNaffinity 5.5860033REMARK  13 active torsions:
REMARK  status: ('A' for Active; 'I' for Inactive)
REMARK    1  A    between atoms: O_4  and  C_21 
REMARK    2  A    between atoms: O_4  and  C_27 
REMARK    3  A    between atoms: O_5  and  C_43 
REMARK    4  A    between atoms: N_7  and  C_19 
REMARK    5  A    between atoms: N_9  and  C_33 
REMARK    6  A    between atoms: N_10  and  C_39 
REMARK    7  A    between atoms: N_12  and  C_40 
REMARK    8  A    between atoms: N_13  and  C_44 
REMARK    9  A    between atoms: C_15  and  C_19 
REMARK   10  A    between atoms: C_15  and  C_20 
REMARK   11  A    between atoms: C_17  and  C_21 
REMARK   12  A    between atoms: C_40  and  C_45 
REMARK   13  A    between atoms: C_40  and  C_43 
ROOT
ATOM      1  F   LIG d   1      27.577   0.895  27.827  0.00  0.00    -0.204 F 
ATOM      2  F   LIG d   1      28.981  -3.357  29.254  0.00  0.00    -0.204 F 
ATOM      3  C   LIG d   1      26.268  -0.987  27.203  0.00  0.00     0.032 A 
ATOM      4  C   LIG d   1      27.382  -0.431  27.846  0.00  0.00     0.141 A 
ATOM      5  C   LIG d   1      26.078  -2.380  27.316  0.00  0.00     0.003 A 
ATOM      6  C   LIG d   1      28.307  -1.220  28.523  0.00  0.00     0.059 A 
ATOM      7  C   LIG d   1      26.988  -3.176  28.011  0.00  0.00     0.030 A 
ATOM      8  C   LIG d   1      28.101  -2.590  28.598  0.00  0.00     0.142 A 
ENDROOT
BRANCH   3   9
ATOM      9  C   LIG d   1      25.250  -0.120  26.461  0.00  0.00     0.136 C 
ATOM     10  O   LIG d   1      25.650  -0.058  25.057  0.00  0.00    -0.353 OA
ATOM     11  C   LIG d   1      26.338   1.185  24.854  0.00  0.00     0.145 C 
ATOM     12  C   LIG d   1      25.509   2.174  25.639  0.00  0.00     0.063 C 
ATOM     13  C   LIG d   1      25.234   1.372  26.905  0.00  0.00     0.039 C 
BRANCH  12  14
ATOM     14  C   LIG d   1      24.255   2.508  24.828  0.00  0.00     0.151 C 
BRANCH  14  15
ATOM     15  O   LIG d   1      23.887   3.880  24.967  0.00  0.00    -0.331 OA
BRANCH  15  16
ATOM     16  C   LIG d   1      23.835   4.569  23.781  0.00  0.00     0.094 A 
ATOM     17  C   LIG d   1      24.556   4.253  22.636  0.00  0.00     0.026 A 
ATOM     18  C   LIG d   1      24.451   5.039  21.483  0.00  0.00     0.019 A 
ATOM     19  C   LIG d   1      23.637   6.179  21.412  0.00  0.00     0.056 A 
ATOM     20  C   LIG d   1      22.880   6.446  22.568  0.00  0.00     0.019 A 
ATOM     21  C   LIG d   1      22.979   5.663  23.734  0.00  0.00     0.026 A 
BRANCH  19  22
ATOM     22  N   LIG d   1      23.542   6.952  20.238  0.00  0.00    -0.345 N 
ATOM     23  C   LIG d   1      22.296   7.746  20.049  0.00  0.00     0.119 C 
ATOM     24  C   LIG d   1      22.212   8.349  18.629  0.00  0.00     0.101 C 
ATOM     25  N   LIG d   1      23.407   9.169  18.329  0.00  0.00    -0.249 NA
ATOM     26  C   LIG d   1      24.639   8.357  18.434  0.00  0.00     0.101 C 
ATOM     27  C   LIG d   1      24.761   7.710  19.829  0.00  0.00     0.119 C 
BRANCH  25  28
ATOM     28  C   LIG d   1      23.378   9.888  17.122  0.00  0.00     0.037 A 
ATOM     29  C   LIG d   1      24.518  10.222  16.392  0.00  0.00     0.013 A 
ATOM     30  C   LIG d   1      24.427  10.915  15.178  0.00  0.00     0.019 A 
ATOM     31  C   LIG d   1      23.191  11.295  14.642  0.00  0.00     0.070 A 
ATOM     32  C   LIG d   1      22.047  10.997  15.397  0.00  0.00     0.019 A 
ATOM     33  C   LIG d   1      22.144  10.310  16.616  0.00  0.00     0.013 A 
BRANCH  31  34
ATOM     34  N   LIG d   1      23.104  11.916  13.372  0.00  0.00    -0.240 N 
ATOM     35  C   LIG d   1      22.676  11.352  12.179  0.00  0.00     0.352 A 
ATOM     36  O   LIG d   1      22.367  10.190  11.951  0.00  0.00    -0.244 OA
ATOM     37  N   LIG d   1      22.681  12.404  11.248  0.00  0.00    -0.200 N 
ATOM     38  N   LIG d   1      23.167  13.552  11.837  0.00  0.00    -0.144 NA
ATOM     39  C   LIG d   1      23.386  13.200  13.064  0.00  0.00     0.207 A 
BRANCH  37  40
ATOM     40  C   LIG d   1      22.492  12.331   9.798  0.00  0.00     0.137 C 
BRANCH  40  41
ATOM     41  C   LIG d   1      21.657  13.522   9.288  0.00  0.00     0.027 C 
ATOM     42  C   LIG d   1      21.389  13.463   7.789  0.00  0.00     0.002 C 
ENDBRANCH  40  41
BRANCH  40  43
ATOM     43  C   LIG d   1      23.807  12.177   8.978  0.00  0.00     0.133 C 
ATOM     44  C   LIG d   1      24.094  10.746   8.533  0.00  0.00     0.034 C 
BRANCH  43  45
ATOM     45  O   LIG d   1      24.933  12.726   9.663  0.00  0.00    -0.383 OA
ATOM     46  H   LIG d   1      25.741  12.299   9.337  0.00  0.00     0.210 HD
ENDBRANCH  43  45
ENDBRANCH  40  43
ENDBRANCH  37  40
ENDBRANCH  31  34
ENDBRANCH  25  28
ENDBRANCH  19  22
ENDBRANCH  15  16
ENDBRANCH  14  15
ENDBRANCH  12  14
BRANCH   9  47
ATOM     47  C   LIG d   1      23.825  -0.713  26.564  0.00  0.00     0.161 C 
BRANCH  47  48
ATOM     48  N   LIG d   1      23.293  -1.215  25.315  0.00  0.00    -0.228 N 
ATOM     49  N   LIG d   1      22.437  -0.484  24.577  0.00  0.00    -0.145 NA
ATOM     50  C   LIG d   1      22.229  -1.298  23.537  0.00  0.00     0.221 A 
ATOM     51  N   LIG d   1      22.931  -2.469  23.563  0.00  0.00    -0.201 NA
ATOM     52  C   LIG d   1      23.602  -2.384  24.689  0.00  0.00     0.197 A 
ENDBRANCH  47  48
ENDBRANCH   9  47
ENDBRANCH   3   9
TORSDOF 13
ENDMDL
MODEL 5
REMARK minimizedAffinity -8.39511681REMARK CNNscore 0.327079356REMARK CNNaffinity 6.20578909REMARK  13 active torsions:
REMARK  status: ('A' for Active; 'I' for Inactive)
REMARK    1  A    between atoms: O_4  and  C_21 
REMARK    2  A    between atoms: O_4  and  C_27 
REMARK    3  A    between atoms: O_5  and  C_43 
REMARK    4  A    between atoms: N_7  and  C_19 
REMARK    5  A    between atoms: N_9  and  C_33 
REMARK    6  A    between atoms: N_10  and  C_39 
REMARK    7  A    between atoms: N_12  and  C_40 
REMARK    8  A    between atoms: N_13  and  C_44 
REMARK    9  A    between atoms: C_15  and  C_19 
REMARK   10  A    between atoms: C_15  and  C_20 
REMARK   11  A    between atoms: C_17  and  C_21 
REMARK   12  A    between atoms: C_40  and  C_45 
REMARK   13  A    between atoms: C_40  and  C_43 
ROOT
ATOM      1  F   LIG d   1       5.978  25.314  -0.194  0.00  0.00    -0.204 F 
ATOM      2  F   LIG d   1       6.977  29.844   0.559  0.00  0.00    -0.204 F 
ATOM      3  C   LIG d   1       8.263  25.964  -0.132  0.00  0.00     0.032 A 
ATOM      4  C   LIG d   1       6.899  26.279  -0.060  0.00  0.00     0.141 A 
ATOM      5  C   LIG d   1       9.185  27.009   0.085  0.00  0.00     0.003 A 
ATOM      6  C   LIG d   1       6.457  27.581   0.155  0.00  0.00     0.059 A 
ATOM      7  C   LIG d   1       8.752  28.313   0.323  0.00  0.00     0.030 A 
ATOM      8  C   LIG d   1       7.391  28.589   0.343  0.00  0.00     0.142 A 
ENDROOT
BRANCH   3   9
ATOM      9  C   LIG d   1       8.748  24.533  -0.366  0.00  0.00     0.136 C 
ATOM     10  O   LIG d   1       8.114  23.674   0.632  0.00  0.00    -0.353 OA
ATOM     11  C   LIG d   1       9.064  23.454   1.685  0.00  0.00     0.145 C 
ATOM     12  C   LIG d   1      10.361  23.234   0.943  0.00  0.00     0.063 C 
ATOM     13  C   LIG d   1      10.270  24.322  -0.119  0.00  0.00     0.039 C 
BRANCH  12  14
ATOM     14  C   LIG d   1      10.361  21.811   0.378  0.00  0.00     0.151 C 
BRANCH  14  15
ATOM     15  O   LIG d   1      11.162  20.931   1.164  0.00  0.00    -0.331 OA
BRANCH  15  16
ATOM     16  C   LIG d   1      10.577  19.714   1.415  0.00  0.00     0.094 A 
ATOM     17  C   LIG d   1       9.997  18.890   0.458  0.00  0.00     0.026 A 
ATOM     18  C   LIG d   1       9.402  17.677   0.823  0.00  0.00     0.019 A 
ATOM     19  C   LIG d   1       9.344  17.229   2.151  0.00  0.00     0.056 A 
ATOM     20  C   LIG d   1       9.984  18.058   3.091  0.00  0.00     0.019 A 
ATOM     21  C   LIG d   1      10.584  19.281   2.735  0.00  0.00     0.026 A 
BRANCH  19  22
ATOM     22  N   LIG d   1       8.745  16.000   2.494  0.00  0.00    -0.345 N 
ATOM     23  C   LIG d   1       7.671  15.496   1.595  0.00  0.00     0.119 C 
ATOM     24  C   LIG d   1       6.938  14.280   2.205  0.00  0.00     0.101 C 
ATOM     25  N   LIG d   1       7.891  13.199   2.541  0.00  0.00    -0.249 NA
ATOM     26  C   LIG d   1       8.909  13.679   3.502  0.00  0.00     0.101 C 
ATOM     27  C   LIG d   1       9.657  14.910   2.950  0.00  0.00     0.119 C 
BRANCH  25  28
ATOM     28  C   LIG d   1       7.327  11.986   2.968  0.00  0.00     0.037 A 
ATOM     29  C   LIG d   1       7.745  11.295   4.105  0.00  0.00     0.013 A 
ATOM     30  C   LIG d   1       7.124  10.102   4.500  0.00  0.00     0.019 A 
ATOM     31  C   LIG d   1       6.055   9.558   3.779  0.00  0.00     0.070 A 
ATOM     32  C   LIG d   1       5.663  10.229   2.612  0.00  0.00     0.019 A 
ATOM     33  C   LIG d   1       6.293  11.418   2.215  0.00  0.00     0.013 A 
BRANCH  31  34
ATOM     34  N   LIG d   1       5.378   8.401   4.235  0.00  0.00    -0.240 N 
ATOM     35  C   LIG d   1       4.023   8.260   4.500  0.00  0.00     0.352 A 
ATOM     36  O   LIG d   1       3.148   9.115   4.477  0.00  0.00    -0.244 OA
ATOM     37  N   LIG d   1       3.848   6.904   4.824  0.00  0.00    -0.200 N 
ATOM     38  N   LIG d   1       5.065   6.260   4.830  0.00  0.00    -0.144 NA
ATOM     39  C   LIG d   1       5.904   7.181   4.476  0.00  0.00     0.207 A 
BRANCH  37  40
ATOM     40  C   LIG d   1       2.653   6.250   5.360  0.00  0.00     0.137 C 
BRANCH  40  41
ATOM     41  C   LIG d   1       2.268   5.020   4.513  0.00  0.00     0.027 C 
ATOM     42  C   LIG d   1       0.762   4.852   4.357  0.00  0.00     0.002 C 
ENDBRANCH  40  41
BRANCH  40  43
ATOM     43  C   LIG d   1       2.735   5.886   6.872  0.00  0.00     0.133 C 
ATOM     44  C   LIG d   1       2.721   7.095   7.801  0.00  0.00     0.034 C 
BRANCH  43  45
ATOM     45  O   LIG d   1       3.850   5.042   7.160  0.00  0.00    -0.383 OA
ATOM     46  H   LIG d   1       4.091   5.145   8.095  0.00  0.00     0.210 HD
ENDBRANCH  43  45
ENDBRANCH  40  43
ENDBRANCH  37  40
ENDBRANCH  31  34
ENDBRANCH  25  28
ENDBRANCH  19  22
ENDBRANCH  15  16
ENDBRANCH  14  15
ENDBRANCH  12  14
BRANCH   9  47
ATOM     47  C   LIG d   1       8.373  24.038  -1.783  0.00  0.00     0.161 C 
BRANCH  47  48
ATOM     48  N   LIG d   1       7.446  22.926  -1.804  0.00  0.00    -0.228 N 
ATOM     49  N   LIG d   1       6.196  23.068  -2.284  0.00  0.00    -0.145 NA
ATOM     50  C   LIG d   1       5.718  21.829  -2.134  0.00  0.00     0.221 A 
ATOM     51  N   LIG d   1       6.602  20.919  -1.629  0.00  0.00    -0.201 NA
ATOM     52  C   LIG d   1       7.686  21.636  -1.442  0.00  0.00     0.197 A 
ENDBRANCH  47  48
ENDBRANCH   9  47
ENDBRANCH   3   9
TORSDOF 13
ENDMDL
MODEL 6
REMARK minimizedAffinity -6.87914181REMARK CNNscore 0.325997353REMARK CNNaffinity 5.4013896REMARK  13 active torsions:
REMARK  status: ('A' for Active; 'I' for Inactive)
REMARK    1  A    between atoms: O_4  and  C_21 
REMARK    2  A    between atoms: O_4  and  C_27 
REMARK    3  A    between atoms: O_5  and  C_43 
REMARK    4  A    between atoms: N_7  and  C_19 
REMARK    5  A    between atoms: N_9  and  C_33 
REMARK    6  A    between atoms: N_10  and  C_39 
REMARK    7  A    between atoms: N_12  and  C_40 
REMARK    8  A    between atoms: N_13  and  C_44 
REMARK    9  A    between atoms: C_15  and  C_19 
REMARK   10  A    between atoms: C_15  and  C_20 
REMARK   11  A    between atoms: C_17  and  C_21 
REMARK   12  A    between atoms: C_40  and  C_45 
REMARK   13  A    between atoms: C_40  and  C_43 
ROOT
ATOM      1  F   LIG d   1      23.003  10.297   9.081  0.00  0.00    -0.204 F 
ATOM      2  F   LIG d   1      22.402  14.042   6.306  0.00  0.00    -0.204 F 
ATOM      3  C   LIG d   1      23.301  12.455  10.029  0.00  0.00     0.032 A 
ATOM      4  C   LIG d   1      23.013  11.629   8.933  0.00  0.00     0.141 A 
ATOM      5  C   LIG d   1      23.229  13.850   9.829  0.00  0.00     0.003 A 
ATOM      6  C   LIG d   1      22.727  12.152   7.676  0.00  0.00     0.059 A 
ATOM      7  C   LIG d   1      22.921  14.383   8.577  0.00  0.00     0.030 A 
ATOM      8  C   LIG d   1      22.685  13.528   7.509  0.00  0.00     0.142 A 
ENDROOT
BRANCH   3   9
ATOM      9  C   LIG d   1      23.613  11.881  11.411  0.00  0.00     0.136 C 
ATOM     10  O   LIG d   1      22.761  10.712  11.616  0.00  0.00    -0.353 OA
ATOM     11  C   LIG d   1      21.645  11.122  12.421  0.00  0.00     0.145 C 
ATOM     12  C   LIG d   1      22.277  12.018  13.460  0.00  0.00     0.063 C 
ATOM     13  C   LIG d   1      23.242  12.820  12.595  0.00  0.00     0.039 C 
BRANCH  12  14
ATOM     14  C   LIG d   1      22.964  11.139  14.507  0.00  0.00     0.151 C 
BRANCH  14  15
ATOM     15  O   LIG d   1      22.521  11.447  15.828  0.00  0.00    -0.331 OA
BRANCH  15  16
ATOM     16  C   LIG d   1      22.772  10.460  16.749  0.00  0.00     0.094 A 
ATOM     17  C   LIG d   1      24.006  10.202  17.332  0.00  0.00     0.026 A 
ATOM     18  C   LIG d   1      24.163   9.151  18.243  0.00  0.00     0.019 A 
ATOM     19  C   LIG d   1      23.108   8.301  18.610  0.00  0.00     0.056 A 
ATOM     20  C   LIG d   1      21.860   8.618  18.044  0.00  0.00     0.019 A 
ATOM     21  C   LIG d   1      21.692   9.672  17.126  0.00  0.00     0.026 A 
BRANCH  19  22
ATOM     22  N   LIG d   1      23.287   7.253  19.535  0.00  0.00    -0.345 N 
ATOM     23  C   LIG d   1      24.666   6.712  19.687  0.00  0.00     0.119 C 
ATOM     24  C   LIG d   1      24.685   5.422  20.538  0.00  0.00     0.101 C 
ATOM     25  N   LIG d   1      24.061   5.651  21.861  0.00  0.00    -0.249 NA
ATOM     26  C   LIG d   1      22.663   6.107  21.709  0.00  0.00     0.101 C 
ATOM     27  C   LIG d   1      22.585   7.383  20.845  0.00  0.00     0.119 C 
BRANCH  25  28
ATOM     28  C   LIG d   1      24.150   4.591  22.779  0.00  0.00     0.037 A 
ATOM     29  C   LIG d   1      23.490   4.573  24.007  0.00  0.00     0.013 A 
ATOM     30  C   LIG d   1      23.591   3.475  24.870  0.00  0.00     0.019 A 
ATOM     31  C   LIG d   1      24.349   2.346  24.536  0.00  0.00     0.070 A 
ATOM     32  C   LIG d   1      25.047   2.382  23.321  0.00  0.00     0.019 A 
ATOM     33  C   LIG d   1      24.950   3.488  22.463  0.00  0.00     0.013 A 
BRANCH  31  34
ATOM     34  N   LIG d   1      24.373   1.206  25.375  0.00  0.00    -0.240 N 
ATOM     35  C   LIG d   1      25.304   0.891  26.354  0.00  0.00     0.352 A 
ATOM     36  O   LIG d   1      26.337   1.480  26.642  0.00  0.00    -0.244 OA
ATOM     37  N   LIG d   1      24.824  -0.282  26.960  0.00  0.00    -0.200 N 
ATOM     38  N   LIG d   1      23.680  -0.708  26.321  0.00  0.00    -0.144 NA
ATOM     39  C   LIG d   1      23.473   0.199  25.421  0.00  0.00     0.207 A 
BRANCH  37  40
ATOM     40  C   LIG d   1      25.504  -1.145  27.928  0.00  0.00     0.137 C 
BRANCH  40  41
ATOM     41  C   LIG d   1      26.287  -2.266  27.216  0.00  0.00     0.027 C 
ATOM     42  C   LIG d   1      25.776  -3.660  27.558  0.00  0.00     0.002 C 
ENDBRANCH  40  41
BRANCH  40  43
ATOM     43  C   LIG d   1      26.408  -0.391  28.948  0.00  0.00     0.133 C 
ATOM     44  C   LIG d   1      27.136  -1.308  29.925  0.00  0.00     0.034 C 
BRANCH  43  45
ATOM     45  O   LIG d   1      25.692   0.626  29.649  0.00  0.00    -0.383 OA
ATOM     46  H   LIG d   1      26.137   0.801  30.494  0.00  0.00     0.210 HD
ENDBRANCH  43  45
ENDBRANCH  40  43
ENDBRANCH  37  40
ENDBRANCH  31  34
ENDBRANCH  25  28
ENDBRANCH  19  22
ENDBRANCH  15  16
ENDBRANCH  14  15
ENDBRANCH  12  14
BRANCH   9  47
ATOM     47  C   LIG d   1      25.098  11.460  11.521  0.00  0.00     0.161 C 
BRANCH  47  48
ATOM     48  N   LIG d   1      25.323  10.032  11.450  0.00  0.00    -0.228 N 
ATOM     49  N   LIG d   1      25.579   9.422  10.277  0.00  0.00    -0.145 NA
ATOM     50  C   LIG d   1      25.735   8.155  10.671  0.00  0.00     0.221 A 
ATOM     51  N   LIG d   1      25.632   7.945  12.017  0.00  0.00    -0.201 NA
ATOM     52  C   LIG d   1      25.384   9.148  12.483  0.00  0.00     0.197 A 
ENDBRANCH  47  48
ENDBRANCH   9  47
ENDBRANCH   3   9
TORSDOF 13
ENDMDL
MODEL 7
REMARK minimizedAffinity -6.11915398REMARK CNNscore 0.323287785REMARK CNNaffinity 5.4496541REMARK  13 active torsions:
REMARK  status: ('A' for Active; 'I' for Inactive)
REMARK    1  A    between atoms: O_4  and  C_21 
REMARK    2  A    between atoms: O_4  and  C_27 
REMARK    3  A    between atoms: O_5  and  C_43 
REMARK    4  A    between atoms: N_7  and  C_19 
REMARK    5  A    between atoms: N_9  and  C_33 
REMARK    6  A    between atoms: N_10  and  C_39 
REMARK    7  A    between atoms: N_12  and  C_40 
REMARK    8  A    between atoms: N_13  and  C_44 
REMARK    9  A    between atoms: C_15  and  C_19 
REMARK   10  A    between atoms: C_15  and  C_20 
REMARK   11  A    between atoms: C_17  and  C_21 
REMARK   12  A    between atoms: C_40  and  C_45 
REMARK   13  A    between atoms: C_40  and  C_43 
ROOT
ATOM      1  F   LIG d   1      18.580  -3.289  37.055  0.00  0.00    -0.204 F 
ATOM      2  F   LIG d   1      18.832  -6.568  33.699  0.00  0.00    -0.204 F 
ATOM      3  C   LIG d   1      18.824  -2.573  34.803  0.00  0.00     0.032 A 
ATOM      4  C   LIG d   1      18.714  -3.594  35.757  0.00  0.00     0.141 A 
ATOM      5  C   LIG d   1      18.892  -2.953  33.446  0.00  0.00     0.003 A 
ATOM      6  C   LIG d   1      18.733  -4.939  35.397  0.00  0.00     0.059 A 
ATOM      7  C   LIG d   1      18.889  -4.298  33.075  0.00  0.00     0.030 A 
ATOM      8  C   LIG d   1      18.822  -5.278  34.056  0.00  0.00     0.142 A 
ENDROOT
BRANCH   3   9
ATOM      9  C   LIG d   1      18.801  -1.096  35.198  0.00  0.00     0.136 C 
ATOM     10  O   LIG d   1      17.653  -0.882  36.075  0.00  0.00    -0.353 OA
ATOM     11  C   LIG d   1      16.594  -0.328  35.280  0.00  0.00     0.145 C 
ATOM     12  C   LIG d   1      17.306   0.675  34.403  0.00  0.00     0.063 C 
ATOM     13  C   LIG d   1      18.546  -0.119  34.013  0.00  0.00     0.039 C 
BRANCH  12  14
ATOM     14  C   LIG d   1      17.602   1.924  35.236  0.00  0.00     0.151 C 
BRANCH  14  15
ATOM     15  O   LIG d   1      18.601   2.740  34.626  0.00  0.00    -0.331 OA
BRANCH  15  16
ATOM     16  C   LIG d   1      18.108   3.653  33.726  0.00  0.00     0.094 A 
ATOM     17  C   LIG d   1      16.918   4.355  33.867  0.00  0.00     0.026 A 
ATOM     18  C   LIG d   1      16.490   5.246  32.876  0.00  0.00     0.019 A 
ATOM     19  C   LIG d   1      17.214   5.475  31.696  0.00  0.00     0.056 A 
ATOM     20  C   LIG d   1      18.440   4.789  31.604  0.00  0.00     0.019 A 
ATOM     21  C   LIG d   1      18.879   3.889  32.594  0.00  0.00     0.026 A 
BRANCH  19  22
ATOM     22  N   LIG d   1      16.768   6.382  30.714  0.00  0.00    -0.345 N 
ATOM     23  C   LIG d   1      15.531   7.154  31.018  0.00  0.00     0.119 C 
ATOM     24  C   LIG d   1      15.018   7.923  29.780  0.00  0.00     0.101 C 
ATOM     25  N   LIG d   1      16.069   8.809  29.232  0.00  0.00    -0.249 NA
ATOM     26  C   LIG d   1      17.266   8.028  28.851  0.00  0.00     0.101 C 
ATOM     27  C   LIG d   1      17.807   7.220  30.049  0.00  0.00     0.119 C 
BRANCH  25  28
ATOM     28  C   LIG d   1      15.675   9.668  28.193  0.00  0.00     0.037 A 
ATOM     29  C   LIG d   1      15.929  11.039  28.184  0.00  0.00     0.013 A 
ATOM     30  C   LIG d   1      15.538  11.843  27.105  0.00  0.00     0.019 A 
ATOM     31  C   LIG d   1      14.886  11.307  25.988  0.00  0.00     0.070 A 
ATOM     32  C   LIG d   1      14.593   9.936  26.017  0.00  0.00     0.019 A 
ATOM     33  C   LIG d   1      14.978   9.136  27.103  0.00  0.00     0.013 A 
BRANCH  31  34
ATOM     34  N   LIG d   1      14.575  12.112  24.866  0.00  0.00    -0.240 N 
ATOM     35  C   LIG d   1      13.580  13.072  24.759  0.00  0.00     0.352 A 
ATOM     36  O   LIG d   1      12.714  13.367  25.571  0.00  0.00    -0.244 OA
ATOM     37  N   LIG d   1      13.755  13.648  23.489  0.00  0.00    -0.200 N 
ATOM     38  N   LIG d   1      14.774  13.008  22.818  0.00  0.00    -0.144 NA
ATOM     39  C   LIG d   1      15.207  12.137  23.672  0.00  0.00     0.207 A 
BRANCH  37  40
ATOM     40  C   LIG d   1      12.871  14.584  22.790  0.00  0.00     0.137 C 
BRANCH  40  41
ATOM     41  C   LIG d   1      13.570  15.189  21.557  0.00  0.00     0.027 C 
ATOM     42  C   LIG d   1      14.245  16.523  21.849  0.00  0.00     0.002 C 
ENDBRANCH  40  41
BRANCH  40  43
ATOM     43  C   LIG d   1      11.476  14.003  22.416  0.00  0.00     0.133 C 
ATOM     44  C   LIG d   1      10.803  14.716  21.247  0.00  0.00     0.034 C 
BRANCH  43  45
ATOM     45  O   LIG d   1      10.601  13.944  23.541  0.00  0.00    -0.383 OA
ATOM     46  H   LIG d   1       9.681  13.950  23.229  0.00  0.00     0.210 HD
ENDBRANCH  43  45
ENDBRANCH  40  43
ENDBRANCH  37  40
ENDBRANCH  31  34
ENDBRANCH  25  28
ENDBRANCH  19  22
ENDBRANCH  15  16
ENDBRANCH  14  15
ENDBRANCH  12  14
BRANCH   9  47
ATOM     47  C   LIG d   1      20.098  -0.694  35.940  0.00  0.00     0.161 C 
BRANCH  47  48
ATOM     48  N   LIG d   1      21.274  -1.433  35.535  0.00  0.00    -0.228 N 
ATOM     49  N   LIG d   1      21.833  -1.248  34.324  0.00  0.00    -0.145 NA
ATOM     50  C   LIG d   1      22.869  -2.091  34.384  0.00  0.00     0.221 A 
ATOM     51  N   LIG d   1      23.012  -2.757  35.568  0.00  0.00    -0.201 NA
ATOM     52  C   LIG d   1      21.999  -2.313  36.278  0.00  0.00     0.197 A 
ENDBRANCH  47  48
ENDBRANCH   9  47
ENDBRANCH   3   9
TORSDOF 13
ENDMDL
MODEL 8
REMARK minimizedAffinity -5.67922688REMARK CNNscore 0.317724079REMARK CNNaffinity 6.2673254REMARK  13 active torsions:
REMARK  status: ('A' for Active; 'I' for Inactive)
REMARK    1  A    between atoms: O_4  and  C_21 
REMARK    2  A    between atoms: O_4  and  C_27 
REMARK    3  A    between atoms: O_5  and  C_43 
REMARK    4  A    between atoms: N_7  and  C_19 
REMARK    5  A    between atoms: N_9  and  C_33 
REMARK    6  A    between atoms: N_10  and  C_39 
REMARK    7  A    between atoms: N_12  and  C_40 
REMARK    8  A    between atoms: N_13  and  C_44 
REMARK    9  A    between atoms: C_15  and  C_19 
REMARK   10  A    between atoms: C_15  and  C_20 
REMARK   11  A    between atoms: C_17  and  C_21 
REMARK   12  A    between atoms: C_40  and  C_45 
REMARK   13  A    between atoms: C_40  and  C_43 
ROOT
ATOM      1  F   LIG d   1      -2.618   7.805  10.967  0.00  0.00    -0.204 F 
ATOM      2  F   LIG d   1      -1.451   6.040  15.163  0.00  0.00    -0.204 F 
ATOM      3  C   LIG d   1      -0.560   6.633  11.158  0.00  0.00     0.032 A 
ATOM      4  C   LIG d   1      -1.739   7.136  11.726  0.00  0.00     0.141 A 
ATOM      5  C   LIG d   1       0.293   5.878  11.990  0.00  0.00     0.003 A 
ATOM      6  C   LIG d   1      -2.039   6.956  13.073  0.00  0.00     0.059 A 
ATOM      7  C   LIG d   1      -0.010   5.674  13.337  0.00  0.00     0.030 A 
ATOM      8  C   LIG d   1      -1.168   6.226  13.868  0.00  0.00     0.142 A 
ENDROOT
BRANCH   3   9
ATOM      9  C   LIG d   1      -0.231   6.829   9.678  0.00  0.00     0.136 C 
ATOM     10  O   LIG d   1      -1.411   6.456   8.902  0.00  0.00    -0.353 OA
ATOM     11  C   LIG d   1      -1.209   5.122   8.414  0.00  0.00     0.145 C 
ATOM     12  C   LIG d   1       0.239   5.127   7.980  0.00  0.00     0.063 C 
ATOM     13  C   LIG d   1       0.879   5.883   9.137  0.00  0.00     0.039 C 
BRANCH  12  14
ATOM     14  C   LIG d   1       0.339   5.847   6.634  0.00  0.00     0.151 C 
BRANCH  14  15
ATOM     15  O   LIG d   1       1.576   5.569   5.977  0.00  0.00    -0.331 OA
BRANCH  15  16
ATOM     16  C   LIG d   1       2.323   6.685   5.692  0.00  0.00     0.094 A 
ATOM     17  C   LIG d   1       2.115   7.536   4.614  0.00  0.00     0.026 A 
ATOM     18  C   LIG d   1       2.954   8.635   4.396  0.00  0.00     0.019 A 
ATOM     19  C   LIG d   1       4.042   8.937   5.229  0.00  0.00     0.056 A 
ATOM     20  C   LIG d   1       4.197   8.089   6.341  0.00  0.00     0.019 A 
ATOM     21  C   LIG d   1       3.361   6.980   6.568  0.00  0.00     0.026 A 
BRANCH  19  22
ATOM     22  N   LIG d   1       4.869  10.054   4.995  0.00  0.00    -0.345 N 
ATOM     23  C   LIG d   1       6.337   9.811   4.951  0.00  0.00     0.119 C 
ATOM     24  C   LIG d   1       7.136  11.134   4.931  0.00  0.00     0.101 C 
ATOM     25  N   LIG d   1       6.712  11.993   3.802  0.00  0.00    -0.249 NA
ATOM     26  C   LIG d   1       5.268  12.303   3.894  0.00  0.00     0.101 C 
ATOM     27  C   LIG d   1       4.424  11.013   3.942  0.00  0.00     0.119 C 
BRANCH  25  28
ATOM     28  C   LIG d   1       7.467  13.159   3.594  0.00  0.00     0.037 A 
ATOM     29  C   LIG d   1       8.424  13.292   2.589  0.00  0.00     0.013 A 
ATOM     30  C   LIG d   1       9.126  14.490   2.408  0.00  0.00     0.019 A 
ATOM     31  C   LIG d   1       8.894  15.606   3.220  0.00  0.00     0.070 A 
ATOM     32  C   LIG d   1       7.963  15.459   4.258  0.00  0.00     0.019 A 
ATOM     33  C   LIG d   1       7.268  14.254   4.441  0.00  0.00     0.013 A 
BRANCH  31  34
ATOM     34  N   LIG d   1       9.544  16.840   2.973  0.00  0.00    -0.240 N 
ATOM     35  C   LIG d   1       9.412  17.662   1.864  0.00  0.00     0.352 A 
ATOM     36  O   LIG d   1       8.778  17.462   0.837  0.00  0.00    -0.244 OA
ATOM     37  N   LIG d   1      10.183  18.801   2.152  0.00  0.00    -0.200 N 
ATOM     38  N   LIG d   1      10.823  18.643   3.362  0.00  0.00    -0.144 NA
ATOM     39  C   LIG d   1      10.406  17.492   3.784  0.00  0.00     0.207 A 
BRANCH  37  40
ATOM     40  C   LIG d   1      10.541  19.902   1.256  0.00  0.00     0.137 C 
BRANCH  40  41
ATOM     41  C   LIG d   1       9.285  20.659   0.781  0.00  0.00     0.027 C 
ATOM     42  C   LIG d   1       9.040  20.525  -0.717  0.00  0.00     0.002 C 
ENDBRANCH  40  41
BRANCH  40  43
ATOM     43  C   LIG d   1      11.606  20.884   1.826  0.00  0.00     0.133 C 
ATOM     44  C   LIG d   1      11.776  22.158   1.004  0.00  0.00     0.034 C 
BRANCH  43  45
ATOM     45  O   LIG d   1      12.866  20.247   2.034  0.00  0.00    -0.383 OA
ATOM     46  H   LIG d   1      13.567  20.918   2.016  0.00  0.00     0.210 HD
ENDBRANCH  43  45
ENDBRANCH  40  43
ENDBRANCH  37  40
ENDBRANCH  31  34
ENDBRANCH  25  28
ENDBRANCH  19  22
ENDBRANCH  15  16
ENDBRANCH  14  15
ENDBRANCH  12  14
BRANCH   9  47
ATOM     47  C   LIG d   1       0.140   8.300   9.376  0.00  0.00     0.161 C 
BRANCH  47  48
ATOM     48  N   LIG d   1      -0.691   8.934   8.374  0.00  0.00    -0.228 N 
ATOM     49  N   LIG d   1      -0.405   8.832   7.062  0.00  0.00    -0.145 NA
ATOM     50  C   LIG d   1      -1.411   9.527   6.521  0.00  0.00     0.221 A 
ATOM     51  N   LIG d   1      -2.323  10.020   7.410  0.00  0.00    -0.201 NA
ATOM     52  C   LIG d   1      -1.851   9.620   8.568  0.00  0.00     0.197 A 
ENDBRANCH  47  48
ENDBRANCH   9  47
ENDBRANCH   3   9
TORSDOF 13
ENDMDL
MODEL 9
REMARK minimizedAffinity -6.47531843REMARK CNNscore 0.305215716REMARK CNNaffinity 5.49999189REMARK  13 active torsions:
REMARK  status: ('A' for Active; 'I' for Inactive)
REMARK    1  A    between atoms: O_4  and  C_21 
REMARK    2  A    between atoms: O_4  and  C_27 
REMARK    3  A    between atoms: O_5  and  C_43 
REMARK    4  A    between atoms: N_7  and  C_19 
REMARK    5  A    between atoms: N_9  and  C_33 
REMARK    6  A    between atoms: N_10  and  C_39 
REMARK    7  A    between atoms: N_12  and  C_40 
REMARK    8  A    between atoms: N_13  and  C_44 
REMARK    9  A    between atoms: C_15  and  C_19 
REMARK   10  A    between atoms: C_15  and  C_20 
REMARK   11  A    between atoms: C_17  and  C_21 
REMARK   12  A    between atoms: C_40  and  C_45 
REMARK   13  A    between atoms: C_40  and  C_43 
ROOT
ATOM      1  F   LIG d   1      10.143  24.057  -0.856  0.00  0.00    -0.204 F 
ATOM      2  F   LIG d   1       6.571  22.922  -3.691  0.00  0.00    -0.204 F 
ATOM      3  C   LIG d   1       8.714  22.275  -0.202  0.00  0.00     0.032 A 
ATOM      4  C   LIG d   1       9.073  23.288  -1.102  0.00  0.00     0.141 A 
ATOM      5  C   LIG d   1       7.621  21.453  -0.548  0.00  0.00     0.003 A 
ATOM      6  C   LIG d   1       8.350  23.523  -2.268  0.00  0.00     0.059 A 
ATOM      7  C   LIG d   1       6.904  21.667  -1.726  0.00  0.00     0.030 A 
ATOM      8  C   LIG d   1       7.268  22.709  -2.568  0.00  0.00     0.142 A 
ENDROOT
BRANCH   3   9
ATOM      9  C   LIG d   1       9.509  22.015   1.078  0.00  0.00     0.136 C 
ATOM     10  O   LIG d   1      10.813  21.478   0.696  0.00  0.00    -0.353 OA
ATOM     11  C   LIG d   1      10.760  20.052   0.852  0.00  0.00     0.145 C 
ATOM     12  C   LIG d   1      10.015  19.873   2.153  0.00  0.00     0.063 C 
ATOM     13  C   LIG d   1       8.909  20.909   1.993  0.00  0.00     0.039 C 
BRANCH  12  14
ATOM     14  C   LIG d   1      10.976  20.162   3.308  0.00  0.00     0.151 C 
BRANCH  14  15
ATOM     15  O   LIG d   1      11.834  19.053   3.571  0.00  0.00    -0.331 OA
BRANCH  15  16
ATOM     16  C   LIG d   1      12.164  18.899   4.895  0.00  0.00     0.094 A 
ATOM     17  C   LIG d   1      13.197  19.561   5.547  0.00  0.00     0.026 A 
ATOM     18  C   LIG d   1      13.468  19.313   6.897  0.00  0.00     0.019 A 
ATOM     19  C   LIG d   1      12.737  18.391   7.661  0.00  0.00     0.056 A 
ATOM     20  C   LIG d   1      11.665  17.774   6.990  0.00  0.00     0.019 A 
ATOM     21  C   LIG d   1      11.385  18.015   5.631  0.00  0.00     0.026 A 
BRANCH  19  22
ATOM     22  N   LIG d   1      13.023  18.162   9.022  0.00  0.00    -0.345 N 
ATOM     23  C   LIG d   1      13.172  19.359   9.894  0.00  0.00     0.119 C 
ATOM     24  C   LIG d   1      13.718  18.987  11.291  0.00  0.00     0.101 C 
ATOM     25  N   LIG d   1      12.863  17.967  11.940  0.00  0.00    -0.249 NA
ATOM     26  C   LIG d   1      12.785  16.745  11.111  0.00  0.00     0.101 C 
ATOM     27  C   LIG d   1      12.267  17.065   9.694  0.00  0.00     0.119 C 
BRANCH  25  28
ATOM     28  C   LIG d   1      13.176  17.655  13.273  0.00  0.00     0.037 A 
ATOM     29  C   LIG d   1      13.978  18.453  14.087  0.00  0.00     0.013 A 
ATOM     30  C   LIG d   1      14.232  18.107  15.421  0.00  0.00     0.019 A 
ATOM     31  C   LIG d   1      13.687  16.953  15.996  0.00  0.00     0.070 A 
ATOM     32  C   LIG d   1      12.916  16.128  15.165  0.00  0.00     0.019 A 
ATOM     33  C   LIG d   1      12.671  16.474  13.828  0.00  0.00     0.013 A 
BRANCH  31  34
ATOM     34  N   LIG d   1      13.877  16.659  17.368  0.00  0.00    -0.240 N 
ATOM     35  C   LIG d   1      14.733  15.720  17.924  0.00  0.00     0.352 A 
ATOM     36  O   LIG d   1      15.437  14.897  17.355  0.00  0.00    -0.244 OA
ATOM     37  N   LIG d   1      14.621  15.892  19.314  0.00  0.00    -0.200 N 
ATOM     38  N   LIG d   1      13.672  16.851  19.595  0.00  0.00    -0.144 NA
ATOM     39  C   LIG d   1      13.287  17.256  18.426  0.00  0.00     0.207 A 
BRANCH  37  40
ATOM     40  C   LIG d   1      15.166  15.047  20.378  0.00  0.00     0.137 C 
BRANCH  40  41
ATOM     41  C   LIG d   1      15.651  15.898  21.568  0.00  0.00     0.027 C 
ATOM     42  C   LIG d   1      17.142  15.745  21.842  0.00  0.00     0.002 C 
ENDBRANCH  40  41
BRANCH  40  43
ATOM     43  C   LIG d   1      14.217  13.908  20.853  0.00  0.00     0.133 C 
ATOM     44  C   LIG d   1      14.297  12.642  20.005  0.00  0.00     0.034 C 
BRANCH  43  45
ATOM     45  O   LIG d   1      12.865  14.351  20.970  0.00  0.00    -0.383 OA
ATOM     46  H   LIG d   1      12.273  13.585  20.890  0.00  0.00     0.210 HD
ENDBRANCH  43  45
ENDBRANCH  40  43
ENDBRANCH  37  40
ENDBRANCH  31  34
ENDBRANCH  25  28
ENDBRANCH  19  22
ENDBRANCH  15  16
ENDBRANCH  14  15
ENDBRANCH  12  14
BRANCH   9  47
ATOM     47  C   LIG d   1       9.707  23.317   1.890  0.00  0.00     0.161 C 
BRANCH  47  48
ATOM     48  N   LIG d   1       8.603  23.653   2.763  0.00  0.00    -0.228 N 
ATOM     49  N   LIG d   1       8.717  23.562   4.101  0.00  0.00    -0.145 NA
ATOM     50  C   LIG d   1       7.508  23.972   4.495  0.00  0.00     0.221 A 
ATOM     51  N   LIG d   1       6.664  24.350   3.489  0.00  0.00    -0.201 NA
ATOM     52  C   LIG d   1       7.385  24.149   2.410  0.00  0.00     0.197 A 
ENDBRANCH  47  48
ENDBRANCH   9  47
ENDBRANCH   3   9
TORSDOF 13
ENDMDL
