REMARK  7 active torsions:
REMARK  status: ('A' for Active; 'I' for Inactive)
REMARK    1  A    between atoms: C1'_19  and  N10_17 
REMARK    2  A    between atoms: C1'_19  and  C2'_20 
REMARK    3  A    between atoms: C2'_20  and  C3'_22 
REMARK    4  A    between atoms: C3'_22  and  C4'_24 
REMARK    5  A    between atoms: C4'_24  and  C5'_26 
REMARK    6  A    between atoms: C5'_26  and  O5'_27 
REMARK    7  A    between atoms: O5'_27  and  P_28 
ROOT
HETATM    1  N1  FMN A 301     197.287 280.508 328.954  1.00 32.05    -0.172 NA
HETATM    2  C2  FMN A 301     196.008 280.307 328.546  1.00 32.05     0.373 A 
HETATM    3  O2  FMN A 301     195.566 279.139 328.510  1.00 32.05    -0.242 OA
HETATM    4  N3  FMN A 301     195.196 281.312 328.177  1.00 32.05    -0.150 NA
HETATM    5  C4  FMN A 301     195.592 282.589 328.188  1.00 32.05     0.304 A 
HETATM    6  O4  FMN A 301     194.814 283.503 327.840  1.00 32.05    -0.263 OA
HETATM    7  C4A FMN A 301     196.976 282.897 328.623  1.00 32.05     0.173 A 
HETATM    8  N5  FMN A 301     197.451 284.161 328.661  1.00 32.05    -0.236 NA
HETATM    9  C5A FMN A 301     198.719 284.411 329.061  1.00 32.05     0.097 A 
HETATM   10  C6  FMN A 301     199.185 285.719 329.092  1.00 32.05     0.016 A 
HETATM   11  C7  FMN A 301     200.485 285.986 329.503  1.00 32.05    -0.024 A 
HETATM   12  C7M FMN A 301     200.987 287.404 329.534  1.00 32.05     0.031 C 
HETATM   13  C8  FMN A 301     201.382 284.872 329.908  1.00 32.05    -0.024 A 
HETATM   14  C8M FMN A 301     202.791 285.162 330.352  1.00 32.05     0.031 C 
HETATM   15  C9  FMN A 301     200.919 283.562 329.879  1.00 32.05     0.014 A 
HETATM   16  C9A FMN A 301     199.619 283.295 329.469  1.00 32.05     0.079 A 
HETATM   17  N10 FMN A 301     199.143 281.970 329.436  1.00 32.05    -0.308 N 
HETATM   18  C10 FMN A 301     197.819 281.746 329.014  1.00 32.05     0.171 A 
ENDROOT
BRANCH  17  19
HETATM   19  C1' FMN A 301     200.012 280.857 329.835  1.00 32.05     0.143 C 
BRANCH  19  20
HETATM   20  C2' FMN A 301     200.309 279.899 328.682  1.00 32.05     0.207 C 
HETATM   21  O2' FMN A 301     199.845 280.417 327.427  1.00 32.05    -0.218 OA
BRANCH  20  22
HETATM   22  C3' FMN A 301     199.669 278.541 328.936  1.00 32.05     0.217 C 
HETATM   23  O3' FMN A 301     198.296 278.724 329.297  1.00 32.05    -0.218 OA
BRANCH  22  24
HETATM   24  C4' FMN A 301     200.388 277.800 330.057  1.00 32.05     0.215 C 
HETATM   25  O4' FMN A 301     200.311 278.573 331.259  1.00 32.05    -0.218 OA
BRANCH  24  26
HETATM   26  C5' FMN A 301     201.851 277.557 329.702  1.00 32.05     0.191 C 
BRANCH  26  27
HETATM   27  O5' FMN A 301     202.163 276.179 329.894  1.00 32.05    -0.261 OA
BRANCH  27  28
HETATM   28  P   FMN A 301     203.507 275.550 329.268  1.00 32.05     0.423 P 
HETATM   29  O1P FMN A 301     204.503 275.620 330.401  1.00 32.05    -0.617 OA
HETATM   30  O2P FMN A 301     203.106 274.148 328.877  1.00 32.05    -0.617 OA
HETATM   31  O3P FMN A 301     203.824 276.455 328.102  1.00 32.05    -0.617 OA
ENDBRANCH  27  28
ENDBRANCH  26  27
ENDBRANCH  24  26
ENDBRANCH  22  24
ENDBRANCH  20  22
ENDBRANCH  19  20
ENDBRANCH  17  19
TORSDOF 7
