MODEL 1
REMARK VINA RESULT:      -7.2      0.000      0.000
REMARK  13 active torsions:
REMARK  status: ('A' for Active; 'I' for Inactive)
REMARK    1  A    between atoms: O_4  and  C_21 
REMARK    2  A    between atoms: O_4  and  C_27 
REMARK    3  A    between atoms: O_5  and  C_43 
REMARK    4  A    between atoms: N_7  and  C_19 
REMARK    5  A    between atoms: N_9  and  C_33 
REMARK    6  A    between atoms: N_10  and  C_39 
REMARK    7  A    between atoms: N_12  and  C_40 
REMARK    8  A    between atoms: N_13  and  C_44 
REMARK    9  A    between atoms: C_15  and  C_19 
REMARK   10  A    between atoms: C_15  and  C_20 
REMARK   11  A    between atoms: C_17  and  C_21 
REMARK   12  A    between atoms: C_40  and  C_45 
REMARK   13  A    between atoms: C_40  and  C_43 
ROOT
ATOM      1  F   LIG d   1      20.500   4.032  -3.963  0.00  0.00    -0.204 F 
ATOM      2  F   LIG d   1      17.426   4.841  -7.424  0.00  0.00    -0.204 F 
ATOM      3  C   LIG d   1      20.674   6.075  -5.162  0.00  0.00     0.032 A 
ATOM      4  C   LIG d   1      20.057   4.836  -4.939  0.00  0.00     0.141 A 
ATOM      5  C   LIG d   1      20.121   6.908  -6.157  0.00  0.00     0.003 A 
ATOM      6  C   LIG d   1      18.977   4.406  -5.704  0.00  0.00     0.059 A 
ATOM      7  C   LIG d   1      19.024   6.495  -6.914  0.00  0.00     0.030 A 
ATOM      8  C   LIG d   1      18.471   5.242  -6.688  0.00  0.00     0.142 A 
ENDROOT
BRANCH   3   9
ATOM      9  C   LIG d   1      21.860   6.548  -4.321  0.00  0.00     0.136 C 
ATOM     10  O   LIG d   1      22.492   7.663  -5.021  0.00  0.00    -0.353 OA
ATOM     11  C   LIG d   1      23.638   7.148  -5.717  0.00  0.00     0.145 C 
ATOM     12  C   LIG d   1      24.252   6.196  -4.717  0.00  0.00     0.063 C 
ATOM     13  C   LIG d   1      23.005   5.504  -4.181  0.00  0.00     0.039 C 
BRANCH  12  14
ATOM     14  C   LIG d   1      25.009   7.014  -3.669  0.00  0.00     0.151 C 
BRANCH  14  15
ATOM     15  O   LIG d   1      25.784   6.181  -2.808  0.00  0.00    -0.331 OA
BRANCH  15  16
ATOM     16  C   LIG d   1      25.681   6.500  -1.477  0.00  0.00     0.094 A 
ATOM     17  C   LIG d   1      26.664   6.280  -0.520  0.00  0.00     0.026 A 
ATOM     18  C   LIG d   1      26.449   6.619   0.821  0.00  0.00     0.019 A 
ATOM     19  C   LIG d   1      25.248   7.180   1.278  0.00  0.00     0.056 A 
ATOM     20  C   LIG d   1      24.290   7.439   0.280  0.00  0.00     0.019 A 
ATOM     21  C   LIG d   1      24.495   7.101  -1.071  0.00  0.00     0.026 A 
BRANCH  19  22
ATOM     22  N   LIG d   1      25.055   7.519   2.633  0.00  0.00    -0.345 N 
ATOM     23  C   LIG d   1      26.179   7.239   3.567  0.00  0.00     0.119 C 
ATOM     24  C   LIG d   1      25.758   7.428   5.042  0.00  0.00     0.101 C 
ATOM     25  N   LIG d   1      25.213   8.785   5.269  0.00  0.00    -0.249 NA
ATOM     26  C   LIG d   1      24.043   9.031   4.399  0.00  0.00     0.101 C 
ATOM     27  C   LIG d   1      24.403   8.832   2.912  0.00  0.00     0.119 C 
BRANCH  25  28
ATOM     28  C   LIG d   1      24.932   9.125   6.602  0.00  0.00     0.037 A 
ATOM     29  C   LIG d   1      25.666   8.658   7.691  0.00  0.00     0.013 A 
ATOM     30  C   LIG d   1      25.358   9.055   8.999  0.00  0.00     0.019 A 
ATOM     31  C   LIG d   1      24.308   9.940   9.270  0.00  0.00     0.070 A 
ATOM     32  C   LIG d   1      23.542  10.376   8.179  0.00  0.00     0.019 A 
ATOM     33  C   LIG d   1      23.849   9.969   6.871  0.00  0.00     0.013 A 
BRANCH  31  34
ATOM     34  N   LIG d   1      24.061  10.404  10.584  0.00  0.00    -0.240 N 
ATOM     35  C   LIG d   1      24.786  11.344  11.303  0.00  0.00     0.352 A 
ATOM     36  O   LIG d   1      25.828  11.904  10.993  0.00  0.00    -0.244 OA
ATOM     37  N   LIG d   1      24.076  11.522  12.502  0.00  0.00    -0.200 N 
ATOM     38  N   LIG d   1      22.998  10.664  12.544  0.00  0.00    -0.144 NA
ATOM     39  C   LIG d   1      23.046  10.053  11.403  0.00  0.00     0.207 A 
BRANCH  37  40
ATOM     40  C   LIG d   1      24.487  12.262  13.697  0.00  0.00     0.137 C 
BRANCH  40  41
ATOM     41  C   LIG d   1      23.262  12.776  14.479  0.00  0.00     0.027 C 
ATOM     42  C   LIG d   1      23.365  12.528  15.978  0.00  0.00     0.002 C 
ENDBRANCH  40  41
BRANCH  40  43
ATOM     43  C   LIG d   1      25.468  11.494  14.632  0.00  0.00     0.133 C 
ATOM     44  C   LIG d   1      26.922  11.932  14.497  0.00  0.00     0.034 C 
BRANCH  43  45
ATOM     45  O   LIG d   1      25.352  10.079  14.482  0.00  0.00    -0.383 OA
ATOM     46  H   LIG d   1      25.423   9.662  15.356  0.00  0.00     0.210 HD
ENDBRANCH  43  45
ENDBRANCH  40  43
ENDBRANCH  37  40
ENDBRANCH  31  34
ENDBRANCH  25  28
ENDBRANCH  19  22
ENDBRANCH  15  16
ENDBRANCH  14  15
ENDBRANCH  12  14
BRANCH   9  47
ATOM     47  C   LIG d   1      21.402   7.015  -2.919  0.00  0.00     0.161 C 
BRANCH  47  48
ATOM     48  N   LIG d   1      21.085   8.424  -2.830  0.00  0.00    -0.228 N 
ATOM     49  N   LIG d   1      21.986   9.316  -2.374  0.00  0.00    -0.145 NA
ATOM     50  C   LIG d   1      21.299  10.457  -2.481  0.00  0.00     0.221 A 
ATOM     51  N   LIG d   1      20.045  10.337  -3.009  0.00  0.00    -0.201 NA
ATOM     52  C   LIG d   1      19.942   9.046  -3.231  0.00  0.00     0.197 A 
ENDBRANCH  47  48
ENDBRANCH   9  47
ENDBRANCH   3   9
TORSDOF 13
ENDMDL
MODEL 2
REMARK VINA RESULT:      -7.1     18.408     21.623
REMARK  13 active torsions:
REMARK  status: ('A' for Active; 'I' for Inactive)
REMARK    1  A    between atoms: O_4  and  C_21 
REMARK    2  A    between atoms: O_4  and  C_27 
REMARK    3  A    between atoms: O_5  and  C_43 
REMARK    4  A    between atoms: N_7  and  C_19 
REMARK    5  A    between atoms: N_9  and  C_33 
REMARK    6  A    between atoms: N_10  and  C_39 
REMARK    7  A    between atoms: N_12  and  C_40 
REMARK    8  A    between atoms: N_13  and  C_44 
REMARK    9  A    between atoms: C_15  and  C_19 
REMARK   10  A    between atoms: C_15  and  C_20 
REMARK   11  A    between atoms: C_17  and  C_21 
REMARK   12  A    between atoms: C_40  and  C_45 
REMARK   13  A    between atoms: C_40  and  C_43 
ROOT
ATOM      1  F   LIG d   1      10.252  22.782  -0.349  0.00  0.00    -0.204 F 
ATOM      2  F   LIG d   1       6.777  23.874  -3.319  0.00  0.00    -0.204 F 
ATOM      3  C   LIG d   1       8.236  21.529  -0.227  0.00  0.00     0.032 A 
ATOM      4  C   LIG d   1       9.007  22.555  -0.791  0.00  0.00     0.141 A 
ATOM      5  C   LIG d   1       6.961  21.293  -0.780  0.00  0.00     0.003 A 
ATOM      6  C   LIG d   1       8.519  23.359  -1.818  0.00  0.00     0.059 A 
ATOM      7  C   LIG d   1       6.472  22.079  -1.825  0.00  0.00     0.030 A 
ATOM      8  C   LIG d   1       7.252  23.113  -2.325  0.00  0.00     0.142 A 
ENDROOT
BRANCH   3   9
ATOM      9  C   LIG d   1       8.773  20.646   0.900  0.00  0.00     0.136 C 
ATOM     10  O   LIG d   1      10.098  20.172   0.508  0.00  0.00    -0.353 OA
ATOM     11  C   LIG d   1       9.952  18.837  -0.000  0.00  0.00     0.145 C 
ATOM     12  C   LIG d   1       8.974  18.205   0.962  0.00  0.00     0.063 C 
ATOM     13  C   LIG d   1       7.965  19.334   1.126  0.00  0.00     0.039 C 
BRANCH  12  14
ATOM     14  C   LIG d   1       9.721  17.845   2.248  0.00  0.00     0.151 C 
BRANCH  14  15
ATOM     15  O   LIG d   1      10.348  16.567   2.154  0.00  0.00    -0.331 OA
BRANCH  15  16
ATOM     16  C   LIG d   1       9.543  15.518   2.526  0.00  0.00     0.094 A 
ATOM     17  C   LIG d   1       9.988  14.316   3.062  0.00  0.00     0.026 A 
ATOM     18  C   LIG d   1       9.084  13.297   3.384  0.00  0.00     0.019 A 
ATOM     19  C   LIG d   1       7.701  13.416   3.180  0.00  0.00     0.056 A 
ATOM     20  C   LIG d   1       7.275  14.662   2.683  0.00  0.00     0.019 A 
ATOM     21  C   LIG d   1       8.176  15.693   2.355  0.00  0.00     0.026 A 
BRANCH  19  22
ATOM     22  N   LIG d   1       6.809  12.379   3.517  0.00  0.00    -0.345 N 
ATOM     23  C   LIG d   1       6.331  11.510   2.407  0.00  0.00     0.119 C 
ATOM     24  C   LIG d   1       5.185  10.578   2.863  0.00  0.00     0.101 C 
ATOM     25  N   LIG d   1       5.595   9.764   4.029  0.00  0.00    -0.249 NA
ATOM     26  C   LIG d   1       5.988  10.631   5.160  0.00  0.00     0.101 C 
ATOM     27  C   LIG d   1       7.117  11.600   4.752  0.00  0.00     0.119 C 
BRANCH  25  28
ATOM     28  C   LIG d   1       4.687   8.775   4.443  0.00  0.00     0.037 A 
ATOM     29  C   LIG d   1       5.033   7.437   4.632  0.00  0.00     0.013 A 
ATOM     30  C   LIG d   1       4.092   6.499   5.075  0.00  0.00     0.019 A 
ATOM     31  C   LIG d   1       2.770   6.862   5.355  0.00  0.00     0.070 A 
ATOM     32  C   LIG d   1       2.411   8.197   5.124  0.00  0.00     0.019 A 
ATOM     33  C   LIG d   1       3.354   9.132   4.672  0.00  0.00     0.013 A 
BRANCH  31  34
ATOM     34  N   LIG d   1       1.850   5.926   5.887  0.00  0.00    -0.240 N 
ATOM     35  C   LIG d   1       1.284   4.834   5.246  0.00  0.00     0.352 A 
ATOM     36  O   LIG d   1       1.390   4.497   4.075  0.00  0.00    -0.244 OA
ATOM     37  N   LIG d   1       0.529   4.176   6.231  0.00  0.00    -0.200 N 
ATOM     38  N   LIG d   1       0.573   4.885   7.412  0.00  0.00    -0.144 NA
ATOM     39  C   LIG d   1       1.357   5.880   7.144  0.00  0.00     0.207 A 
BRANCH  37  40
ATOM     40  C   LIG d   1      -0.416   3.070   6.059  0.00  0.00     0.137 C 
BRANCH  40  41
ATOM     41  C   LIG d   1      -0.521   2.227   7.345  0.00  0.00     0.027 C 
ATOM     42  C   LIG d   1      -1.802   1.405   7.416  0.00  0.00     0.002 C 
ENDBRANCH  40  41
BRANCH  40  43
ATOM     43  C   LIG d   1      -1.825   3.493   5.550  0.00  0.00     0.133 C 
ATOM     44  C   LIG d   1      -2.003   3.359   4.040  0.00  0.00     0.034 C 
BRANCH  43  45
ATOM     45  O   LIG d   1      -2.180   4.806   5.984  0.00  0.00    -0.383 OA
ATOM     46  H   LIG d   1      -1.407   5.221   6.399  0.00  0.00     0.210 HD
ENDBRANCH  43  45
ENDBRANCH  40  43
ENDBRANCH  37  40
ENDBRANCH  31  34
ENDBRANCH  25  28
ENDBRANCH  19  22
ENDBRANCH  15  16
ENDBRANCH  14  15
ENDBRANCH  12  14
BRANCH   9  47
ATOM     47  C   LIG d   1       8.879  21.432   2.227  0.00  0.00     0.161 C 
BRANCH  47  48
ATOM     48  N   LIG d   1      10.233  21.646   2.690  0.00  0.00    -0.228 N 
ATOM     49  N   LIG d   1      10.864  22.819   2.490  0.00  0.00    -0.145 NA
ATOM     50  C   LIG d   1      12.041  22.586   3.078  0.00  0.00     0.221 A 
ATOM     51  N   LIG d   1      12.168  21.359   3.665  0.00  0.00    -0.201 NA
ATOM     52  C   LIG d   1      11.009  20.793   3.415  0.00  0.00     0.197 A 
ENDBRANCH  47  48
ENDBRANCH   9  47
ENDBRANCH   3   9
TORSDOF 13
ENDMDL
MODEL 3
REMARK VINA RESULT:      -7.1     16.595     18.913
REMARK  13 active torsions:
REMARK  status: ('A' for Active; 'I' for Inactive)
REMARK    1  A    between atoms: O_4  and  C_21 
REMARK    2  A    between atoms: O_4  and  C_27 
REMARK    3  A    between atoms: O_5  and  C_43 
REMARK    4  A    between atoms: N_7  and  C_19 
REMARK    5  A    between atoms: N_9  and  C_33 
REMARK    6  A    between atoms: N_10  and  C_39 
REMARK    7  A    between atoms: N_12  and  C_40 
REMARK    8  A    between atoms: N_13  and  C_44 
REMARK    9  A    between atoms: C_15  and  C_19 
REMARK   10  A    between atoms: C_15  and  C_20 
REMARK   11  A    between atoms: C_17  and  C_21 
REMARK   12  A    between atoms: C_40  and  C_45 
REMARK   13  A    between atoms: C_40  and  C_43 
ROOT
ATOM      1  F   LIG d   1       4.768  23.576   1.832  0.00  0.00    -0.204 F 
ATOM      2  F   LIG d   1       0.505  24.354   0.013  0.00  0.00    -0.204 F 
ATOM      3  C   LIG d   1       4.603  23.992  -0.501  0.00  0.00     0.032 A 
ATOM      4  C   LIG d   1       4.008  23.831   0.758  0.00  0.00     0.141 A 
ATOM      5  C   LIG d   1       3.760  24.327  -1.582  0.00  0.00     0.003 A 
ATOM      6  C   LIG d   1       2.632  23.934   0.937  0.00  0.00     0.059 A 
ATOM      7  C   LIG d   1       2.382  24.454  -1.407  0.00  0.00     0.030 A 
ATOM      8  C   LIG d   1       1.830  24.244  -0.151  0.00  0.00     0.142 A 
ENDROOT
BRANCH   3   9
ATOM      9  C   LIG d   1       6.115  23.880  -0.698  0.00  0.00     0.136 C 
ATOM     10  O   LIG d   1       6.356  23.308  -2.020  0.00  0.00    -0.353 OA
ATOM     11  C   LIG d   1       6.625  21.908  -1.847  0.00  0.00     0.145 C 
ATOM     12  C   LIG d   1       7.520  21.874  -0.631  0.00  0.00     0.063 C 
ATOM     13  C   LIG d   1       6.816  22.882   0.269  0.00  0.00     0.039 C 
BRANCH  12  14
ATOM     14  C   LIG d   1       8.929  22.295  -1.054  0.00  0.00     0.151 C 
BRANCH  14  15
ATOM     15  O   LIG d   1       9.828  21.187  -1.072  0.00  0.00    -0.331 OA
BRANCH  15  16
ATOM     16  C   LIG d   1      10.173  20.724   0.174  0.00  0.00     0.094 A 
ATOM     17  C   LIG d   1      10.779  21.478   1.171  0.00  0.00     0.026 A 
ATOM     18  C   LIG d   1      11.115  20.902   2.401  0.00  0.00     0.019 A 
ATOM     19  C   LIG d   1      10.878  19.552   2.698  0.00  0.00     0.056 A 
ATOM     20  C   LIG d   1      10.218  18.825   1.689  0.00  0.00     0.019 A 
ATOM     21  C   LIG d   1       9.876  19.394   0.448  0.00  0.00     0.026 A 
BRANCH  19  22
ATOM     22  N   LIG d   1      11.219  18.994   3.946  0.00  0.00    -0.345 N 
ATOM     23  C   LIG d   1      10.861  17.567   4.171  0.00  0.00     0.119 C 
ATOM     24  C   LIG d   1      11.066  17.150   5.645  0.00  0.00     0.101 C 
ATOM     25  N   LIG d   1      12.454  17.419   6.084  0.00  0.00    -0.249 NA
ATOM     26  C   LIG d   1      12.780  18.854   5.940  0.00  0.00     0.101 C 
ATOM     27  C   LIG d   1      12.569  19.329   4.488  0.00  0.00     0.119 C 
BRANCH  25  28
ATOM     28  C   LIG d   1      12.801  16.948   7.361  0.00  0.00     0.037 A 
ATOM     29  C   LIG d   1      12.189  15.857   7.977  0.00  0.00     0.013 A 
ATOM     30  C   LIG d   1      12.597  15.413   9.241  0.00  0.00     0.019 A 
ATOM     31  C   LIG d   1      13.640  16.035   9.936  0.00  0.00     0.070 A 
ATOM     32  C   LIG d   1      14.228  17.158   9.336  0.00  0.00     0.019 A 
ATOM     33  C   LIG d   1      13.809  17.606   8.074  0.00  0.00     0.013 A 
BRANCH  31  34
ATOM     34  N   LIG d   1      14.104  15.524  11.172  0.00  0.00    -0.240 N 
ATOM     35  C   LIG d   1      14.032  16.125  12.420  0.00  0.00     0.352 A 
ATOM     36  O   LIG d   1      13.635  17.246  12.705  0.00  0.00    -0.244 OA
ATOM     37  N   LIG d   1      14.535  15.172  13.321  0.00  0.00    -0.200 N 
ATOM     38  N   LIG d   1      14.969  14.058  12.635  0.00  0.00    -0.144 NA
ATOM     39  C   LIG d   1      14.685  14.326  11.401  0.00  0.00     0.207 A 
BRANCH  37  40
ATOM     40  C   LIG d   1      14.854  15.346  14.740  0.00  0.00     0.137 C 
BRANCH  40  41
ATOM     41  C   LIG d   1      14.591  14.049  15.530  0.00  0.00     0.027 C 
ATOM     42  C   LIG d   1      15.688  13.734  16.540  0.00  0.00     0.002 C 
ENDBRANCH  40  41
BRANCH  40  43
ATOM     43  C   LIG d   1      16.284  15.895  15.022  0.00  0.00     0.133 C 
ATOM     44  C   LIG d   1      16.315  17.373  15.400  0.00  0.00     0.034 C 
BRANCH  43  45
ATOM     45  O   LIG d   1      17.181  15.632  13.943  0.00  0.00    -0.383 OA
ATOM     46  H   LIG d   1      17.487  16.476  13.573  0.00  0.00     0.210 HD
ENDBRANCH  43  45
ENDBRANCH  40  43
ENDBRANCH  37  40
ENDBRANCH  31  34
ENDBRANCH  25  28
ENDBRANCH  19  22
ENDBRANCH  15  16
ENDBRANCH  14  15
ENDBRANCH  12  14
BRANCH   9  47
ATOM     47  C   LIG d   1       6.797  25.266  -0.606  0.00  0.00     0.161 C 
BRANCH  47  48
ATOM     48  N   LIG d   1       7.507  25.503   0.633  0.00  0.00    -0.228 N 
ATOM     49  N   LIG d   1       8.847  25.390   0.703  0.00  0.00    -0.145 NA
ATOM     50  C   LIG d   1       9.068  25.706   1.983  0.00  0.00     0.221 A 
ATOM     51  N   LIG d   1       7.957  26.046   2.701  0.00  0.00    -0.201 NA
ATOM     52  C   LIG d   1       6.990  25.920   1.821  0.00  0.00     0.197 A 
ENDBRANCH  47  48
ENDBRANCH   9  47
ENDBRANCH   3   9
TORSDOF 13
ENDMDL
MODEL 4
REMARK VINA RESULT:      -6.9     10.146     13.894
REMARK  13 active torsions:
REMARK  status: ('A' for Active; 'I' for Inactive)
REMARK    1  A    between atoms: O_4  and  C_21 
REMARK    2  A    between atoms: O_4  and  C_27 
REMARK    3  A    between atoms: O_5  and  C_43 
REMARK    4  A    between atoms: N_7  and  C_19 
REMARK    5  A    between atoms: N_9  and  C_33 
REMARK    6  A    between atoms: N_10  and  C_39 
REMARK    7  A    between atoms: N_12  and  C_40 
REMARK    8  A    between atoms: N_13  and  C_44 
REMARK    9  A    between atoms: C_15  and  C_19 
REMARK   10  A    between atoms: C_15  and  C_20 
REMARK   11  A    between atoms: C_17  and  C_21 
REMARK   12  A    between atoms: C_40  and  C_45 
REMARK   13  A    between atoms: C_40  and  C_43 
ROOT
ATOM      1  F   LIG d   1      14.397  -2.063  -9.162  0.00  0.00    -0.204 F 
ATOM      2  F   LIG d   1      11.244  -3.896 -12.126  0.00  0.00    -0.204 F 
ATOM      3  C   LIG d   1      13.080  -3.892  -8.409  0.00  0.00     0.032 A 
ATOM      4  C   LIG d   1      13.432  -2.964  -9.399  0.00  0.00     0.141 A 
ATOM      5  C   LIG d   1      12.107  -4.859  -8.740  0.00  0.00     0.003 A 
ATOM      6  C   LIG d   1      12.810  -2.947 -10.644  0.00  0.00     0.059 A 
ATOM      7  C   LIG d   1      11.494  -4.863  -9.993  0.00  0.00     0.030 A 
ATOM      8  C   LIG d   1      11.843  -3.899 -10.929  0.00  0.00     0.142 A 
ENDROOT
BRANCH   3   9
ATOM      9  C   LIG d   1      13.765  -3.912  -7.043  0.00  0.00     0.136 C 
ATOM     10  O   LIG d   1      15.182  -3.619  -7.245  0.00  0.00    -0.353 OA
ATOM     11  C   LIG d   1      15.891  -4.867  -7.232  0.00  0.00     0.145 C 
ATOM     12  C   LIG d   1      15.241  -5.625  -6.099  0.00  0.00     0.063 C 
ATOM     13  C   LIG d   1      13.773  -5.305  -6.349  0.00  0.00     0.039 C 
BRANCH  12  14
ATOM     14  C   LIG d   1      15.781  -5.077  -4.776  0.00  0.00     0.151 C 
BRANCH  14  15
ATOM     15  O   LIG d   1      16.748  -5.953  -4.198  0.00  0.00    -0.331 OA
BRANCH  15  16
ATOM     16  C   LIG d   1      17.840  -5.311  -3.668  0.00  0.00     0.094 A 
ATOM     17  C   LIG d   1      17.804  -4.114  -2.965  0.00  0.00     0.026 A 
ATOM     18  C   LIG d   1      18.982  -3.527  -2.488  0.00  0.00     0.019 A 
ATOM     19  C   LIG d   1      20.249  -4.092  -2.694  0.00  0.00     0.056 A 
ATOM     20  C   LIG d   1      20.251  -5.329  -3.364  0.00  0.00     0.019 A 
ATOM     21  C   LIG d   1      19.072  -5.927  -3.850  0.00  0.00     0.026 A 
BRANCH  19  22
ATOM     22  N   LIG d   1      21.422  -3.487  -2.199  0.00  0.00    -0.345 N 
ATOM     23  C   LIG d   1      22.671  -4.296  -2.241  0.00  0.00     0.119 C 
ATOM     24  C   LIG d   1      23.818  -3.619  -1.457  0.00  0.00     0.101 C 
ATOM     25  N   LIG d   1      24.064  -2.247  -1.955  0.00  0.00    -0.249 NA
ATOM     26  C   LIG d   1      22.844  -1.420  -1.834  0.00  0.00     0.101 C 
ATOM     27  C   LIG d   1      21.659  -2.064  -2.581  0.00  0.00     0.119 C 
BRANCH  25  28
ATOM     28  C   LIG d   1      25.180  -1.584  -1.418  0.00  0.00     0.037 A 
ATOM     29  C   LIG d   1      25.790  -0.484  -2.019  0.00  0.00     0.013 A 
ATOM     30  C   LIG d   1      26.883   0.157  -1.421  0.00  0.00     0.019 A 
ATOM     31  C   LIG d   1      27.405  -0.272  -0.196  0.00  0.00     0.070 A 
ATOM     32  C   LIG d   1      26.820  -1.405   0.387  0.00  0.00     0.019 A 
ATOM     33  C   LIG d   1      25.731  -2.049  -0.219  0.00  0.00     0.013 A 
BRANCH  31  34
ATOM     34  N   LIG d   1      28.452   0.436   0.443  0.00  0.00    -0.240 N 
ATOM     35  C   LIG d   1      28.350   1.570   1.234  0.00  0.00     0.352 A 
ATOM     36  O   LIG d   1      27.359   2.243   1.480  0.00  0.00    -0.244 OA
ATOM     37  N   LIG d   1      29.652   1.813   1.704  0.00  0.00    -0.200 N 
ATOM     38  N   LIG d   1      30.529   0.903   1.155  0.00  0.00    -0.144 NA
ATOM     39  C   LIG d   1      29.769   0.134   0.442  0.00  0.00     0.207 A 
BRANCH  37  40
ATOM     40  C   LIG d   1      30.149   2.984   2.430  0.00  0.00     0.137 C 
BRANCH  40  41
ATOM     41  C   LIG d   1      30.638   2.595   3.839  0.00  0.00     0.027 C 
ATOM     42  C   LIG d   1      29.503   2.202   4.777  0.00  0.00     0.002 C 
ENDBRANCH  40  41
BRANCH  40  43
ATOM     43  C   LIG d   1      31.228   3.811   1.670  0.00  0.00     0.133 C 
ATOM     44  C   LIG d   1      31.360   5.251   2.156  0.00  0.00     0.034 C 
BRANCH  43  45
ATOM     45  O   LIG d   1      31.034   3.772   0.256  0.00  0.00    -0.383 OA
ATOM     46  H   LIG d   1      31.654   3.133  -0.131  0.00  0.00     0.210 HD
ENDBRANCH  43  45
ENDBRANCH  40  43
ENDBRANCH  37  40
ENDBRANCH  31  34
ENDBRANCH  25  28
ENDBRANCH  19  22
ENDBRANCH  15  16
ENDBRANCH  14  15
ENDBRANCH  12  14
BRANCH   9  47
ATOM     47  C   LIG d   1      13.152  -2.856  -6.092  0.00  0.00     0.161 C 
BRANCH  47  48
ATOM     48  N   LIG d   1      13.971  -1.679  -5.896  0.00  0.00    -0.228 N 
ATOM     49  N   LIG d   1      13.759  -0.554  -6.604  0.00  0.00    -0.145 NA
ATOM     50  C   LIG d   1      14.698   0.252  -6.100  0.00  0.00     0.221 A 
ATOM     51  N   LIG d   1      15.454  -0.287  -5.098  0.00  0.00    -0.201 NA
ATOM     52  C   LIG d   1      14.965  -1.501  -4.983  0.00  0.00     0.197 A 
ENDBRANCH  47  48
ENDBRANCH   9  47
ENDBRANCH   3   9
TORSDOF 13
ENDMDL
MODEL 5
REMARK VINA RESULT:      -6.8     16.967     19.267
REMARK  13 active torsions:
REMARK  status: ('A' for Active; 'I' for Inactive)
REMARK    1  A    between atoms: O_4  and  C_21 
REMARK    2  A    between atoms: O_4  and  C_27 
REMARK    3  A    between atoms: O_5  and  C_43 
REMARK    4  A    between atoms: N_7  and  C_19 
REMARK    5  A    between atoms: N_9  and  C_33 
REMARK    6  A    between atoms: N_10  and  C_39 
REMARK    7  A    between atoms: N_12  and  C_40 
REMARK    8  A    between atoms: N_13  and  C_44 
REMARK    9  A    between atoms: C_15  and  C_19 
REMARK   10  A    between atoms: C_15  and  C_20 
REMARK   11  A    between atoms: C_17  and  C_21 
REMARK   12  A    between atoms: C_40  and  C_45 
REMARK   13  A    between atoms: C_40  and  C_43 
ROOT
ATOM      1  F   LIG d   1       4.173  23.451   1.814  0.00  0.00    -0.204 F 
ATOM      2  F   LIG d   1       0.265  24.240  -0.674  0.00  0.00    -0.204 F 
ATOM      3  C   LIG d   1       4.403  24.108  -0.457  0.00  0.00     0.032 A 
ATOM      4  C   LIG d   1       3.603  23.788   0.649  0.00  0.00     0.141 A 
ATOM      5  C   LIG d   1       3.748  24.522  -1.636  0.00  0.00     0.003 A 
ATOM      6  C   LIG d   1       2.213  23.813   0.581  0.00  0.00     0.059 A 
ATOM      7  C   LIG d   1       2.356  24.572  -1.707  0.00  0.00     0.030 A 
ATOM      8  C   LIG d   1       1.602  24.204  -0.601  0.00  0.00     0.142 A 
ENDROOT
BRANCH   3   9
ATOM      9  C   LIG d   1       5.930  24.083  -0.382  0.00  0.00     0.136 C 
ATOM     10  O   LIG d   1       6.451  24.414  -1.706  0.00  0.00    -0.353 OA
ATOM     11  C   LIG d   1       6.809  23.184  -2.354  0.00  0.00     0.145 C 
ATOM     12  C   LIG d   1       7.474  22.391  -1.252  0.00  0.00     0.063 C 
ATOM     13  C   LIG d   1       6.534  22.679  -0.088  0.00  0.00     0.039 C 
BRANCH  12  14
ATOM     14  C   LIG d   1       8.892  22.930  -1.056  0.00  0.00     0.151 C 
BRANCH  14  15
ATOM     15  O   LIG d   1       9.874  21.911  -1.242  0.00  0.00    -0.331 OA
BRANCH  15  16
ATOM     16  C   LIG d   1      10.427  21.444  -0.075  0.00  0.00     0.094 A 
ATOM     17  C   LIG d   1      11.309  22.149   0.734  0.00  0.00     0.026 A 
ATOM     18  C   LIG d   1      11.838  21.571   1.893  0.00  0.00     0.019 A 
ATOM     19  C   LIG d   1      11.526  20.265   2.300  0.00  0.00     0.056 A 
ATOM     20  C   LIG d   1      10.591  19.593   1.490  0.00  0.00     0.019 A 
ATOM     21  C   LIG d   1      10.055  20.165   0.321  0.00  0.00     0.026 A 
BRANCH  19  22
ATOM     22  N   LIG d   1      12.065  19.704   3.475  0.00  0.00    -0.345 N 
ATOM     23  C   LIG d   1      13.540  19.799   3.656  0.00  0.00     0.119 C 
ATOM     24  C   LIG d   1      14.027  18.945   4.848  0.00  0.00     0.101 C 
ATOM     25  N   LIG d   1      13.320  19.320   6.094  0.00  0.00    -0.249 NA
ATOM     26  C   LIG d   1      11.859  19.143   5.940  0.00  0.00     0.101 C 
ATOM     27  C   LIG d   1      11.324  19.959   4.745  0.00  0.00     0.119 C 
BRANCH  25  28
ATOM     28  C   LIG d   1      13.780  18.713   7.273  0.00  0.00     0.037 A 
ATOM     29  C   LIG d   1      14.796  19.240   8.070  0.00  0.00     0.013 A 
ATOM     30  C   LIG d   1      15.194  18.606   9.254  0.00  0.00     0.019 A 
ATOM     31  C   LIG d   1      14.587  17.424   9.694  0.00  0.00     0.070 A 
ATOM     32  C   LIG d   1      13.596  16.871   8.871  0.00  0.00     0.019 A 
ATOM     33  C   LIG d   1      13.206  17.504   7.682  0.00  0.00     0.013 A 
BRANCH  31  34
ATOM     34  N   LIG d   1      14.935  16.840  10.935  0.00  0.00    -0.240 N 
ATOM     35  C   LIG d   1      14.258  15.846  11.626  0.00  0.00     0.352 A 
ATOM     36  O   LIG d   1      13.184  15.326  11.356  0.00  0.00    -0.244 OA
ATOM     37  N   LIG d   1      15.063  15.552  12.739  0.00  0.00    -0.200 N 
ATOM     38  N   LIG d   1      16.155  16.392  12.766  0.00  0.00    -0.144 NA
ATOM     39  C   LIG d   1      16.022  17.105  11.693  0.00  0.00     0.207 A 
BRANCH  37  40
ATOM     40  C   LIG d   1      14.739  14.710  13.893  0.00  0.00     0.137 C 
BRANCH  40  41
ATOM     41  C   LIG d   1      13.955  15.504  14.955  0.00  0.00     0.027 C 
ATOM     42  C   LIG d   1      14.649  15.532  16.312  0.00  0.00     0.002 C 
ENDBRANCH  40  41
BRANCH  40  43
ATOM     43  C   LIG d   1      14.016  13.377  13.541  0.00  0.00     0.133 C 
ATOM     44  C   LIG d   1      13.892  12.412  14.716  0.00  0.00     0.034 C 
BRANCH  43  45
ATOM     45  O   LIG d   1      14.607  12.727  12.416  0.00  0.00    -0.383 OA
ATOM     46  H   LIG d   1      15.210  12.034  12.732  0.00  0.00     0.210 HD
ENDBRANCH  43  45
ENDBRANCH  40  43
ENDBRANCH  37  40
ENDBRANCH  31  34
ENDBRANCH  25  28
ENDBRANCH  19  22
ENDBRANCH  15  16
ENDBRANCH  14  15
ENDBRANCH  12  14
BRANCH   9  47
ATOM     47  C   LIG d   1       6.458  25.107   0.650  0.00  0.00     0.161 C 
BRANCH  47  48
ATOM     48  N   LIG d   1       6.854  26.379   0.083  0.00  0.00    -0.228 N 
ATOM     49  N   LIG d   1       8.134  26.627  -0.251  0.00  0.00    -0.145 NA
ATOM     50  C   LIG d   1       8.041  27.868  -0.737  0.00  0.00     0.221 A 
ATOM     51  N   LIG d   1       6.780  28.392  -0.763  0.00  0.00    -0.201 NA
ATOM     52  C   LIG d   1       6.051  27.426  -0.251  0.00  0.00     0.197 A 
ENDBRANCH  47  48
ENDBRANCH   9  47
ENDBRANCH   3   9
TORSDOF 13
ENDMDL
MODEL 6
REMARK VINA RESULT:      -6.8     18.230     21.523
REMARK  13 active torsions:
REMARK  status: ('A' for Active; 'I' for Inactive)
REMARK    1  A    between atoms: O_4  and  C_21 
REMARK    2  A    between atoms: O_4  and  C_27 
REMARK    3  A    between atoms: O_5  and  C_43 
REMARK    4  A    between atoms: N_7  and  C_19 
REMARK    5  A    between atoms: N_9  and  C_33 
REMARK    6  A    between atoms: N_10  and  C_39 
REMARK    7  A    between atoms: N_12  and  C_40 
REMARK    8  A    between atoms: N_13  and  C_44 
REMARK    9  A    between atoms: C_15  and  C_19 
REMARK   10  A    between atoms: C_15  and  C_20 
REMARK   11  A    between atoms: C_17  and  C_21 
REMARK   12  A    between atoms: C_40  and  C_45 
REMARK   13  A    between atoms: C_40  and  C_43 
ROOT
ATOM      1  F   LIG d   1       8.106  20.923   0.996  0.00  0.00    -0.204 F 
ATOM      2  F   LIG d   1       9.567  24.904  -1.030  0.00  0.00    -0.204 F 
ATOM      3  C   LIG d   1      10.440  21.367   0.949  0.00  0.00     0.032 A 
ATOM      4  C   LIG d   1       9.120  21.722   0.636  0.00  0.00     0.141 A 
ATOM      5  C   LIG d   1      11.459  22.280   0.606  0.00  0.00     0.003 A 
ATOM      6  C   LIG d   1       8.819  22.899  -0.043  0.00  0.00     0.059 A 
ATOM      7  C   LIG d   1      11.164  23.473  -0.055  0.00  0.00     0.030 A 
ATOM      8  C   LIG d   1       9.847  23.765  -0.384  0.00  0.00     0.142 A 
ENDROOT
BRANCH   3   9
ATOM      9  C   LIG d   1      10.771  20.075   1.696  0.00  0.00     0.136 C 
ATOM     10  O   LIG d   1      11.001  19.027   0.704  0.00  0.00    -0.353 OA
ATOM     11  C   LIG d   1       9.798  18.251   0.602  0.00  0.00     0.145 C 
ATOM     12  C   LIG d   1       9.356  18.103   2.039  0.00  0.00     0.063 C 
ATOM     13  C   LIG d   1       9.602  19.514   2.558  0.00  0.00     0.039 C 
BRANCH  12  14
ATOM     14  C   LIG d   1      10.225  17.035   2.706  0.00  0.00     0.151 C 
BRANCH  14  15
ATOM     15  O   LIG d   1      10.419  15.906   1.855  0.00  0.00    -0.331 OA
BRANCH  15  16
ATOM     16  C   LIG d   1       9.583  14.850   2.123  0.00  0.00     0.094 A 
ATOM     17  C   LIG d   1       8.484  14.482   1.356  0.00  0.00     0.026 A 
ATOM     18  C   LIG d   1       7.677  13.402   1.732  0.00  0.00     0.019 A 
ATOM     19  C   LIG d   1       7.913  12.645   2.890  0.00  0.00     0.056 A 
ATOM     20  C   LIG d   1       9.060  13.008   3.619  0.00  0.00     0.019 A 
ATOM     21  C   LIG d   1       9.878  14.093   3.250  0.00  0.00     0.026 A 
BRANCH  19  22
ATOM     22  N   LIG d   1       7.090  11.558   3.246  0.00  0.00    -0.345 N 
ATOM     23  C   LIG d   1       7.291  10.971   4.599  0.00  0.00     0.119 C 
ATOM     24  C   LIG d   1       6.509   9.650   4.773  0.00  0.00     0.101 C 
ATOM     25  N   LIG d   1       5.068   9.846   4.495  0.00  0.00    -0.249 NA
ATOM     26  C   LIG d   1       4.864  10.349   3.119  0.00  0.00     0.101 C 
ATOM     27  C   LIG d   1       5.646  11.658   2.884  0.00  0.00     0.119 C 
BRANCH  25  28
ATOM     28  C   LIG d   1       4.231   8.750   4.762  0.00  0.00     0.037 A 
ATOM     29  C   LIG d   1       4.475   7.459   4.296  0.00  0.00     0.013 A 
ATOM     30  C   LIG d   1       3.621   6.397   4.619  0.00  0.00     0.019 A 
ATOM     31  C   LIG d   1       2.493   6.582   5.427  0.00  0.00     0.070 A 
ATOM     32  C   LIG d   1       2.223   7.888   5.859  0.00  0.00     0.019 A 
ATOM     33  C   LIG d   1       3.077   8.950   5.526  0.00  0.00     0.013 A 
BRANCH  31  34
ATOM     34  N   LIG d   1       1.686   5.486   5.820  0.00  0.00    -0.240 N 
ATOM     35  C   LIG d   1       0.466   5.096   5.287  0.00  0.00     0.352 A 
ATOM     36  O   LIG d   1      -0.207   5.655   4.432  0.00  0.00    -0.244 OA
ATOM     37  N   LIG d   1       0.135   3.904   5.952  0.00  0.00    -0.200 N 
ATOM     38  N   LIG d   1       1.083   3.619   6.910  0.00  0.00    -0.144 NA
ATOM     39  C   LIG d   1       1.952   4.570   6.776  0.00  0.00     0.207 A 
BRANCH  37  40
ATOM     40  C   LIG d   1      -1.129   3.164   5.909  0.00  0.00     0.137 C 
BRANCH  40  41
ATOM     41  C   LIG d   1      -0.933   1.708   6.376  0.00  0.00     0.027 C 
ATOM     42  C   LIG d   1      -1.155   0.690   5.264  0.00  0.00     0.002 C 
ENDBRANCH  40  41
BRANCH  40  43
ATOM     43  C   LIG d   1      -2.306   3.844   6.667  0.00  0.00     0.133 C 
ATOM     44  C   LIG d   1      -3.438   4.314   5.759  0.00  0.00     0.034 C 
BRANCH  43  45
ATOM     45  O   LIG d   1      -1.859   4.908   7.507  0.00  0.00    -0.383 OA
ATOM     46  H   LIG d   1      -2.363   5.711   7.296  0.00  0.00     0.210 HD
ENDBRANCH  43  45
ENDBRANCH  40  43
ENDBRANCH  37  40
ENDBRANCH  31  34
ENDBRANCH  25  28
ENDBRANCH  19  22
ENDBRANCH  15  16
ENDBRANCH  14  15
ENDBRANCH  12  14
BRANCH   9  47
ATOM     47  C   LIG d   1      12.035  20.241   2.572  0.00  0.00     0.161 C 
BRANCH  47  48
ATOM     48  N   LIG d   1      11.766  20.533   3.964  0.00  0.00    -0.228 N 
ATOM     49  N   LIG d   1      11.937  19.601   4.920  0.00  0.00    -0.145 NA
ATOM     50  C   LIG d   1      11.603  20.287   6.016  0.00  0.00     0.221 A 
ATOM     51  N   LIG d   1      11.274  21.596   5.808  0.00  0.00    -0.201 NA
ATOM     52  C   LIG d   1      11.397  21.726   4.506  0.00  0.00     0.197 A 
ENDBRANCH  47  48
ENDBRANCH   9  47
ENDBRANCH   3   9
TORSDOF 13
ENDMDL
MODEL 7
REMARK VINA RESULT:      -6.8     18.493     21.620
REMARK  13 active torsions:
REMARK  status: ('A' for Active; 'I' for Inactive)
REMARK    1  A    between atoms: O_4  and  C_21 
REMARK    2  A    between atoms: O_4  and  C_27 
REMARK    3  A    between atoms: O_5  and  C_43 
REMARK    4  A    between atoms: N_7  and  C_19 
REMARK    5  A    between atoms: N_9  and  C_33 
REMARK    6  A    between atoms: N_10  and  C_39 
REMARK    7  A    between atoms: N_12  and  C_40 
REMARK    8  A    between atoms: N_13  and  C_44 
REMARK    9  A    between atoms: C_15  and  C_19 
REMARK   10  A    between atoms: C_15  and  C_20 
REMARK   11  A    between atoms: C_17  and  C_21 
REMARK   12  A    between atoms: C_40  and  C_45 
REMARK   13  A    between atoms: C_40  and  C_43 
ROOT
ATOM      1  F   LIG d   1       5.252  23.530   1.912  0.00  0.00    -0.204 F 
ATOM      2  F   LIG d   1       2.618  24.427  -1.875  0.00  0.00    -0.204 F 
ATOM      3  C   LIG d   1       6.329  23.643  -0.202  0.00  0.00     0.032 A 
ATOM      4  C   LIG d   1       5.171  23.704   0.586  0.00  0.00     0.141 A 
ATOM      5  C   LIG d   1       6.192  23.903  -1.582  0.00  0.00     0.003 A 
ATOM      6  C   LIG d   1       3.918  23.950   0.031  0.00  0.00     0.059 A 
ATOM      7  C   LIG d   1       4.943  24.173  -2.144  0.00  0.00     0.030 A 
ATOM      8  C   LIG d   1       3.817  24.181  -1.333  0.00  0.00     0.142 A 
ENDROOT
BRANCH   3   9
ATOM      9  C   LIG d   1       7.705  23.374   0.407  0.00  0.00     0.136 C 
ATOM     10  O   LIG d   1       8.675  23.309  -0.683  0.00  0.00    -0.353 OA
ATOM     11  C   LIG d   1       8.916  21.923  -0.971  0.00  0.00     0.145 C 
ATOM     12  C   LIG d   1       8.999  21.294   0.400  0.00  0.00     0.063 C 
ATOM     13  C   LIG d   1       7.839  21.989   1.103  0.00  0.00     0.039 C 
BRANCH  12  14
ATOM     14  C   LIG d   1      10.370  21.612   0.999  0.00  0.00     0.151 C 
BRANCH  14  15
ATOM     15  O   LIG d   1      11.241  20.482   0.954  0.00  0.00    -0.331 OA
BRANCH  15  16
ATOM     16  C   LIG d   1      10.680  19.323   1.429  0.00  0.00     0.094 A 
ATOM     17  C   LIG d   1      10.521  18.998   2.770  0.00  0.00     0.026 A 
ATOM     18  C   LIG d   1       9.960  17.774   3.150  0.00  0.00     0.019 A 
ATOM     19  C   LIG d   1       9.540  16.810   2.221  0.00  0.00     0.056 A 
ATOM     20  C   LIG d   1       9.666  17.186   0.871  0.00  0.00     0.019 A 
ATOM     21  C   LIG d   1      10.231  18.414   0.478  0.00  0.00     0.026 A 
BRANCH  19  22
ATOM     22  N   LIG d   1       8.971  15.586   2.627  0.00  0.00    -0.345 N 
ATOM     23  C   LIG d   1       8.136  15.603   3.859  0.00  0.00     0.119 C 
ATOM     24  C   LIG d   1       7.776  14.175   4.326  0.00  0.00     0.101 C 
ATOM     25  N   LIG d   1       7.104  13.417   3.246  0.00  0.00    -0.249 NA
ATOM     26  C   LIG d   1       7.972  13.328   2.052  0.00  0.00     0.101 C 
ATOM     27  C   LIG d   1       8.381  14.730   1.556  0.00  0.00     0.119 C 
BRANCH  25  28
ATOM     28  C   LIG d   1       6.599  12.154   3.598  0.00  0.00     0.037 A 
ATOM     29  C   LIG d   1       7.018  11.438   4.718  0.00  0.00     0.013 A 
ATOM     30  C   LIG d   1       6.456  10.195   5.038  0.00  0.00     0.019 A 
ATOM     31  C   LIG d   1       5.447   9.622   4.254  0.00  0.00     0.070 A 
ATOM     32  C   LIG d   1       5.056  10.322   3.104  0.00  0.00     0.019 A 
ATOM     33  C   LIG d   1       5.628  11.563   2.783  0.00  0.00     0.013 A 
BRANCH  31  34
ATOM     34  N   LIG d   1       4.824   8.409   4.634  0.00  0.00    -0.240 N 
ATOM     35  C   LIG d   1       3.524   8.226   5.083  0.00  0.00     0.352 A 
ATOM     36  O   LIG d   1       2.675   9.072   5.325  0.00  0.00    -0.244 OA
ATOM     37  N   LIG d   1       3.373   6.837   5.226  0.00  0.00    -0.200 N 
ATOM     38  N   LIG d   1       4.563   6.201   4.946  0.00  0.00    -0.144 NA
ATOM     39  C   LIG d   1       5.356   7.167   4.606  0.00  0.00     0.207 A 
BRANCH  37  40
ATOM     40  C   LIG d   1       2.262   6.106   5.839  0.00  0.00     0.137 C 
BRANCH  40  41
ATOM     41  C   LIG d   1       1.967   4.801   5.072  0.00  0.00     0.027 C 
ATOM     42  C   LIG d   1       1.216   5.035   3.767  0.00  0.00     0.002 C 
ENDBRANCH  40  41
BRANCH  40  43
ATOM     43  C   LIG d   1       2.426   5.835   7.364  0.00  0.00     0.133 C 
ATOM     44  C   LIG d   1       1.139   6.007   8.164  0.00  0.00     0.034 C 
BRANCH  43  45
ATOM     45  O   LIG d   1       3.481   6.608   7.935  0.00  0.00    -0.383 OA
ATOM     46  H   LIG d   1       3.993   7.021   7.221  0.00  0.00     0.210 HD
ENDBRANCH  43  45
ENDBRANCH  40  43
ENDBRANCH  37  40
ENDBRANCH  31  34
ENDBRANCH  25  28
ENDBRANCH  19  22
ENDBRANCH  15  16
ENDBRANCH  14  15
ENDBRANCH  12  14
BRANCH   9  47
ATOM     47  C   LIG d   1       8.112  24.497   1.391  0.00  0.00     0.161 C 
BRANCH  47  48
ATOM     48  N   LIG d   1       8.302  25.793   0.776  0.00  0.00    -0.228 N 
ATOM     49  N   LIG d   1       7.269  26.637   0.589  0.00  0.00    -0.145 NA
ATOM     50  C   LIG d   1       7.885  27.682   0.029  0.00  0.00     0.221 A 
ATOM     51  N   LIG d   1       9.239  27.558  -0.107  0.00  0.00    -0.201 NA
ATOM     52  C   LIG d   1       9.474  26.363   0.383  0.00  0.00     0.197 A 
ENDBRANCH  47  48
ENDBRANCH   9  47
ENDBRANCH   3   9
TORSDOF 13
ENDMDL
MODEL 8
REMARK VINA RESULT:      -6.8     15.023     16.653
REMARK  13 active torsions:
REMARK  status: ('A' for Active; 'I' for Inactive)
REMARK    1  A    between atoms: O_4  and  C_21 
REMARK    2  A    between atoms: O_4  and  C_27 
REMARK    3  A    between atoms: O_5  and  C_43 
REMARK    4  A    between atoms: N_7  and  C_19 
REMARK    5  A    between atoms: N_9  and  C_33 
REMARK    6  A    between atoms: N_10  and  C_39 
REMARK    7  A    between atoms: N_12  and  C_40 
REMARK    8  A    between atoms: N_13  and  C_44 
REMARK    9  A    between atoms: C_15  and  C_19 
REMARK   10  A    between atoms: C_15  and  C_20 
REMARK   11  A    between atoms: C_17  and  C_21 
REMARK   12  A    between atoms: C_40  and  C_45 
REMARK   13  A    between atoms: C_40  and  C_43 
ROOT
ATOM      1  F   LIG d   1       8.715  23.980   1.891  0.00  0.00    -0.204 F 
ATOM      2  F   LIG d   1       6.485  23.310  -2.191  0.00  0.00    -0.204 F 
ATOM      3  C   LIG d   1       8.749  21.804   0.938  0.00  0.00     0.032 A 
ATOM      4  C   LIG d   1       8.348  23.147   0.908  0.00  0.00     0.141 A 
ATOM      5  C   LIG d   1       8.392  20.992  -0.158  0.00  0.00     0.003 A 
ATOM      6  C   LIG d   1       7.574  23.657  -0.130  0.00  0.00     0.059 A 
ATOM      7  C   LIG d   1       7.635  21.501  -1.214  0.00  0.00     0.030 A 
ATOM      8  C   LIG d   1       7.223  22.826  -1.183  0.00  0.00     0.142 A 
ENDROOT
BRANCH   3   9
ATOM      9  C   LIG d   1       9.601  21.243   2.077  0.00  0.00     0.136 C 
ATOM     10  O   LIG d   1      10.519  22.294   2.512  0.00  0.00    -0.353 OA
ATOM     11  C   LIG d   1      11.793  22.041   1.899  0.00  0.00     0.145 C 
ATOM     12  C   LIG d   1      11.949  20.544   2.027  0.00  0.00     0.063 C 
ATOM     13  C   LIG d   1      10.546  20.079   1.660  0.00  0.00     0.039 C 
BRANCH  12  14
ATOM     14  C   LIG d   1      12.355  20.220   3.467  0.00  0.00     0.151 C 
BRANCH  14  15
ATOM     15  O   LIG d   1      13.108  19.010   3.543  0.00  0.00    -0.331 OA
BRANCH  15  16
ATOM     16  C   LIG d   1      13.299  18.548   4.822  0.00  0.00     0.094 A 
ATOM     17  C   LIG d   1      13.269  17.212   5.204  0.00  0.00     0.026 A 
ATOM     18  C   LIG d   1      13.449  16.846   6.543  0.00  0.00     0.019 A 
ATOM     19  C   LIG d   1      13.655  17.784   7.566  0.00  0.00     0.056 A 
ATOM     20  C   LIG d   1      13.731  19.124   7.142  0.00  0.00     0.019 A 
ATOM     21  C   LIG d   1      13.550  19.503   5.798  0.00  0.00     0.026 A 
BRANCH  19  22
ATOM     22  N   LIG d   1      13.840  17.393   8.907  0.00  0.00    -0.345 N 
ATOM     23  C   LIG d   1      13.318  16.055   9.300  0.00  0.00     0.119 C 
ATOM     24  C   LIG d   1      13.366  15.848  10.830  0.00  0.00     0.101 C 
ATOM     25  N   LIG d   1      14.737  16.051  11.350  0.00  0.00    -0.249 NA
ATOM     26  C   LIG d   1      15.222  17.412  11.033  0.00  0.00     0.101 C 
ATOM     27  C   LIG d   1      15.172  17.679   9.515  0.00  0.00     0.119 C 
BRANCH  25  28
ATOM     28  C   LIG d   1      14.935  15.748  12.708  0.00  0.00     0.037 A 
ATOM     29  C   LIG d   1      16.139  15.956  13.379  0.00  0.00     0.013 A 
ATOM     30  C   LIG d   1      16.271  15.663  14.743  0.00  0.00     0.019 A 
ATOM     31  C   LIG d   1      15.201  15.158  15.492  0.00  0.00     0.070 A 
ATOM     32  C   LIG d   1      14.003  14.909  14.807  0.00  0.00     0.019 A 
ATOM     33  C   LIG d   1      13.878  15.196  13.439  0.00  0.00     0.013 A 
BRANCH  31  34
ATOM     34  N   LIG d   1      15.317  14.949  16.887  0.00  0.00    -0.240 N 
ATOM     35  C   LIG d   1      15.813  13.830  17.539  0.00  0.00     0.352 A 
ATOM     36  O   LIG d   1      16.172  12.763  17.059  0.00  0.00    -0.244 OA
ATOM     37  N   LIG d   1      15.808  14.163  18.904  0.00  0.00    -0.200 N 
ATOM     38  N   LIG d   1      15.258  15.414  19.082  0.00  0.00    -0.144 NA
ATOM     39  C   LIG d   1      15.002  15.812  17.877  0.00  0.00     0.207 A 
BRANCH  37  40
ATOM     40  C   LIG d   1      16.058  13.287  20.051  0.00  0.00     0.137 C 
BRANCH  40  41
ATOM     41  C   LIG d   1      16.725  14.062  21.204  0.00  0.00     0.027 C 
ATOM     42  C   LIG d   1      18.202  14.344  20.957  0.00  0.00     0.002 C 
ENDBRANCH  40  41
BRANCH  40  43
ATOM     43  C   LIG d   1      14.811  12.499  20.551  0.00  0.00     0.133 C 
ATOM     44  C   LIG d   1      14.208  13.050  21.840  0.00  0.00     0.034 C 
BRANCH  43  45
ATOM     45  O   LIG d   1      15.074  11.102  20.675  0.00  0.00    -0.383 OA
ATOM     46  H   LIG d   1      14.244  10.639  20.872  0.00  0.00     0.210 HD
ENDBRANCH  43  45
ENDBRANCH  40  43
ENDBRANCH  37  40
ENDBRANCH  31  34
ENDBRANCH  25  28
ENDBRANCH  19  22
ENDBRANCH  15  16
ENDBRANCH  14  15
ENDBRANCH  12  14
BRANCH   9  47
ATOM     47  C   LIG d   1       8.722  20.803   3.272  0.00  0.00     0.161 C 
BRANCH  47  48
ATOM     48  N   LIG d   1       8.414  19.389   3.300  0.00  0.00    -0.228 N 
ATOM     49  N   LIG d   1       7.441  18.870   2.527  0.00  0.00    -0.145 NA
ATOM     50  C   LIG d   1       7.515  17.575   2.849  0.00  0.00     0.221 A 
ATOM     51  N   LIG d   1       8.497  17.251   3.741  0.00  0.00    -0.201 NA
ATOM     52  C   LIG d   1       9.054  18.412   3.999  0.00  0.00     0.197 A 
ENDBRANCH  47  48
ENDBRANCH   9  47
ENDBRANCH   3   9
TORSDOF 13
ENDMDL
MODEL 9
REMARK VINA RESULT:      -6.7     18.229     21.844
REMARK  13 active torsions:
REMARK  status: ('A' for Active; 'I' for Inactive)
REMARK    1  A    between atoms: O_4  and  C_21 
REMARK    2  A    between atoms: O_4  and  C_27 
REMARK    3  A    between atoms: O_5  and  C_43 
REMARK    4  A    between atoms: N_7  and  C_19 
REMARK    5  A    between atoms: N_9  and  C_33 
REMARK    6  A    between atoms: N_10  and  C_39 
REMARK    7  A    between atoms: N_12  and  C_40 
REMARK    8  A    between atoms: N_13  and  C_44 
REMARK    9  A    between atoms: C_15  and  C_19 
REMARK   10  A    between atoms: C_15  and  C_20 
REMARK   11  A    between atoms: C_17  and  C_21 
REMARK   12  A    between atoms: C_40  and  C_45 
REMARK   13  A    between atoms: C_40  and  C_43 
ROOT
ATOM      1  F   LIG d   1      10.047  25.124   2.158  0.00  0.00    -0.204 F 
ATOM      2  F   LIG d   1      13.725  26.996   4.407  0.00  0.00    -0.204 F 
ATOM      3  C   LIG d   1      11.934  23.741   2.568  0.00  0.00     0.032 A 
ATOM      4  C   LIG d   1      11.283  24.979   2.655  0.00  0.00     0.141 A 
ATOM      5  C   LIG d   1      13.205  23.629   3.169  0.00  0.00     0.003 A 
ATOM      6  C   LIG d   1      11.883  26.082   3.256  0.00  0.00     0.059 A 
ATOM      7  C   LIG d   1      13.805  24.724   3.793  0.00  0.00     0.030 A 
ATOM      8  C   LIG d   1      13.143  25.943   3.819  0.00  0.00     0.142 A 
ENDROOT
BRANCH   3   9
ATOM      9  C   LIG d   1      11.275  22.528   1.910  0.00  0.00     0.136 C 
ATOM     10  O   LIG d   1       9.854  22.549   2.250  0.00  0.00    -0.353 OA
ATOM     11  C   LIG d   1       9.652  21.633   3.337  0.00  0.00     0.145 C 
ATOM     12  C   LIG d   1      10.511  20.449   2.957  0.00  0.00     0.063 C 
ATOM     13  C   LIG d   1      11.764  21.156   2.457  0.00  0.00     0.039 C 
BRANCH  12  14
ATOM     14  C   LIG d   1       9.779  19.644   1.881  0.00  0.00     0.151 C 
BRANCH  14  15
ATOM     15  O   LIG d   1      10.459  18.426   1.580  0.00  0.00    -0.331 OA
BRANCH  15  16
ATOM     16  C   LIG d   1       9.706  17.297   1.786  0.00  0.00     0.094 A 
ATOM     17  C   LIG d   1       8.326  17.217   1.650  0.00  0.00     0.026 A 
ATOM     18  C   LIG d   1       7.648  16.021   1.911  0.00  0.00     0.019 A 
ATOM     19  C   LIG d   1       8.303  14.852   2.329  0.00  0.00     0.056 A 
ATOM     20  C   LIG d   1       9.705  14.948   2.408  0.00  0.00     0.019 A 
ATOM     21  C   LIG d   1      10.396  16.147   2.150  0.00  0.00     0.026 A 
BRANCH  19  22
ATOM     22  N   LIG d   1       7.601  13.656   2.579  0.00  0.00    -0.345 N 
ATOM     23  C   LIG d   1       7.462  13.238   4.001  0.00  0.00     0.119 C 
ATOM     24  C   LIG d   1       6.892  11.807   4.125  0.00  0.00     0.101 C 
ATOM     25  N   LIG d   1       5.599  11.688   3.413  0.00  0.00    -0.249 NA
ATOM     26  C   LIG d   1       5.757  12.021   1.981  0.00  0.00     0.101 C 
ATOM     27  C   LIG d   1       6.346  13.436   1.802  0.00  0.00     0.119 C 
BRANCH  25  28
ATOM     28  C   LIG d   1       4.913  10.473   3.576  0.00  0.00     0.037 A 
ATOM     29  C   LIG d   1       5.390   9.411   4.343  0.00  0.00     0.013 A 
ATOM     30  C   LIG d   1       4.648   8.233   4.495  0.00  0.00     0.019 A 
ATOM     31  C   LIG d   1       3.395   8.072   3.893  0.00  0.00     0.070 A 
ATOM     32  C   LIG d   1       2.934   9.123   3.087  0.00  0.00     0.019 A 
ATOM     33  C   LIG d   1       3.684  10.298   2.930  0.00  0.00     0.013 A 
BRANCH  31  34
ATOM     34  N   LIG d   1       2.613   6.915   4.125  0.00  0.00    -0.240 N 
ATOM     35  C   LIG d   1       1.419   6.822   4.825  0.00  0.00     0.352 A 
ATOM     36  O   LIG d   1       0.835   7.693   5.455  0.00  0.00    -0.244 OA
ATOM     37  N   LIG d   1       1.004   5.488   4.677  0.00  0.00    -0.200 N 
ATOM     38  N   LIG d   1       1.952   4.775   3.975  0.00  0.00    -0.144 NA
ATOM     39  C   LIG d   1       2.850   5.660   3.682  0.00  0.00     0.207 A 
BRANCH  37  40
ATOM     40  C   LIG d   1      -0.094   4.801   5.359  0.00  0.00     0.137 C 
BRANCH  40  41
ATOM     41  C   LIG d   1      -0.652   3.654   4.492  0.00  0.00     0.027 C 
ATOM     42  C   LIG d   1      -1.924   3.040   5.065  0.00  0.00     0.002 C 
ENDBRANCH  40  41
BRANCH  40  43
ATOM     43  C   LIG d   1       0.243   4.305   6.796  0.00  0.00     0.133 C 
ATOM     44  C   LIG d   1       0.051   5.364   7.877  0.00  0.00     0.034 C 
BRANCH  43  45
ATOM     45  O   LIG d   1       1.550   3.737   6.874  0.00  0.00    -0.383 OA
ATOM     46  H   LIG d   1       2.191   4.443   7.056  0.00  0.00     0.210 HD
ENDBRANCH  43  45
ENDBRANCH  40  43
ENDBRANCH  37  40
ENDBRANCH  31  34
ENDBRANCH  25  28
ENDBRANCH  19  22
ENDBRANCH  15  16
ENDBRANCH  14  15
ENDBRANCH  12  14
BRANCH   9  47
ATOM     47  C   LIG d   1      11.436  22.568   0.372  0.00  0.00     0.161 C 
BRANCH  47  48
ATOM     48  N   LIG d   1      10.245  22.968  -0.346  0.00  0.00    -0.228 N 
ATOM     49  N   LIG d   1      10.066  24.240  -0.749  0.00  0.00    -0.145 NA
ATOM     50  C   LIG d   1       8.884  24.154  -1.367  0.00  0.00     0.221 A 
ATOM     51  N   LIG d   1       8.336  22.903  -1.407  0.00  0.00    -0.201 NA
ATOM     52  C   LIG d   1       9.221  22.175  -0.766  0.00  0.00     0.197 A 
ENDBRANCH  47  48
ENDBRANCH   9  47
ENDBRANCH   3   9
TORSDOF 13
ENDMDL
