REMARK  13 active torsions:
REMARK  status: ('A' for Active; 'I' for Inactive)
REMARK    1  A    between atoms: O_4  and  C_21 
REMARK    2  A    between atoms: O_4  and  C_27 
REMARK    3  A    between atoms: O_5  and  C_43 
REMARK    4  A    between atoms: N_7  and  C_19 
REMARK    5  A    between atoms: N_9  and  C_33 
REMARK    6  A    between atoms: N_10  and  C_39 
REMARK    7  A    between atoms: N_12  and  C_40 
REMARK    8  A    between atoms: N_13  and  C_44 
REMARK    9  A    between atoms: C_15  and  C_19 
REMARK   10  A    between atoms: C_15  and  C_20 
REMARK   11  A    between atoms: C_17  and  C_21 
REMARK   12  A    between atoms: C_40  and  C_45 
REMARK   13  A    between atoms: C_40  and  C_43 
ROOT
ATOM      1  F   LIG d   1       0.058  16.586  -0.907  0.00  0.00    -0.204 F 
ATOM      2  F   LIG d   1       1.295  18.946   2.964  0.00  0.00    -0.204 F 
ATOM      3  C   LIG d   1       2.327  16.486  -0.209  0.00  0.00     0.032 A 
ATOM      4  C   LIG d   1       1.015  16.952  -0.043  0.00  0.00     0.141 A 
ATOM      5  C   LIG d   1       3.276  16.849   0.770  0.00  0.00     0.003 A 
ATOM      6  C   LIG d   1       0.663  17.792   1.009  0.00  0.00     0.059 A 
ATOM      7  C   LIG d   1       2.926  17.672   1.841  0.00  0.00     0.030 A 
ATOM      8  C   LIG d   1       1.625  18.146   1.943  0.00  0.00     0.142 A 
ENDROOT
BRANCH   3   9
ATOM      9  C   LIG d   1       2.714  15.562  -1.364  0.00  0.00     0.136 C 
ATOM     10  O   LIG d   1       1.996  14.301  -1.191  0.00  0.00    -0.353 OA
ATOM     11  C   LIG d   1       2.903  13.362  -0.594  0.00  0.00     0.145 C 
ATOM     12  C   LIG d   1       4.198  13.613  -1.330  0.00  0.00     0.063 C 
ATOM     13  C   LIG d   1       4.211  15.136  -1.371  0.00  0.00     0.039 C 
BRANCH  12  14
ATOM     14  C   LIG d   1       4.110  12.953  -2.708  0.00  0.00     0.151 C 
BRANCH  14  15
ATOM     15  O   LIG d   1       2.759  12.841  -3.153  0.00  0.00    -0.331 OA
BRANCH  15  16
ATOM     16  C   LIG d   1       2.484  13.550  -4.296  0.00  0.00     0.094 A 
ATOM     17  C   LIG d   1       1.237  14.051  -4.650  0.00  0.00     0.026 A 
ATOM     18  C   LIG d   1       1.057  14.739  -5.855  0.00  0.00     0.019 A 
ATOM     19  C   LIG d   1       2.098  14.955  -6.769  0.00  0.00     0.056 A 
ATOM     20  C   LIG d   1       3.360  14.483  -6.362  0.00  0.00     0.019 A 
ATOM     21  C   LIG d   1       3.552  13.787  -5.153  0.00  0.00     0.026 A 
BRANCH  19  22
ATOM     22  N   LIG d   1       1.895  15.658  -7.974  0.00  0.00    -0.345 N 
ATOM     23  C   LIG d   1       2.780  16.827  -8.234  0.00  0.00     0.119 C 
ATOM     24  C   LIG d   1       2.302  17.646  -9.454  0.00  0.00     0.101 C 
ATOM     25  N   LIG d   1       2.194  16.792 -10.657  0.00  0.00    -0.249 NA
ATOM     26  C   LIG d   1       1.249  15.678 -10.426  0.00  0.00     0.101 C 
ATOM     27  C   LIG d   1       1.667  14.840  -9.201  0.00  0.00     0.119 C 
BRANCH  25  28
ATOM     28  C   LIG d   1       1.909  17.454 -11.863  0.00  0.00     0.037 A 
ATOM     29  C   LIG d   1       2.262  18.778 -12.121  0.00  0.00     0.013 A 
ATOM     30  C   LIG d   1       1.978  19.379 -13.354  0.00  0.00     0.019 A 
ATOM     31  C   LIG d   1       1.338  18.677 -14.382  0.00  0.00     0.070 A 
ATOM     32  C   LIG d   1       0.945  17.359 -14.108  0.00  0.00     0.019 A 
ATOM     33  C   LIG d   1       1.223  16.764 -12.868  0.00  0.00     0.013 A 
BRANCH  31  34
ATOM     34  N   LIG d   1       1.136  19.264 -15.655  0.00  0.00    -0.240 N 
ATOM     35  C   LIG d   1       0.988  18.618 -16.874  0.00  0.00     0.352 A 
ATOM     36  O   LIG d   1       1.083  17.424 -17.121  0.00  0.00    -0.244 OA
ATOM     37  N   LIG d   1       0.713  19.637 -17.802  0.00  0.00    -0.200 N 
ATOM     38  N   LIG d   1       0.768  20.866 -17.183  0.00  0.00    -0.144 NA
ATOM     39  C   LIG d   1       1.010  20.577 -15.944  0.00  0.00     0.207 A 
BRANCH  37  40
ATOM     40  C   LIG d   1       0.649  19.537 -19.262  0.00  0.00     0.137 C 
BRANCH  40  41
ATOM     41  C   LIG d   1       1.990  19.046 -19.842  0.00  0.00     0.027 C 
ATOM     42  C   LIG d   1       3.200  19.696 -19.181  0.00  0.00     0.002 C 
ENDBRANCH  40  41
BRANCH  40  43
ATOM     43  C   LIG d   1      -0.540  18.691 -19.804  0.00  0.00     0.133 C 
ATOM     44  C   LIG d   1      -1.399  19.420 -20.833  0.00  0.00     0.034 C 
BRANCH  43  45
ATOM     45  O   LIG d   1      -1.350  18.170 -18.751  0.00  0.00    -0.383 OA
ATOM     46  H   LIG d   1      -0.799  17.618 -18.171  0.00  0.00     0.210 HD
ENDBRANCH  43  45
ENDBRANCH  40  43
ENDBRANCH  37  40
ENDBRANCH  31  34
ENDBRANCH  25  28
ENDBRANCH  19  22
ENDBRANCH  15  16
ENDBRANCH  14  15
ENDBRANCH  12  14
BRANCH   9  47
ATOM     47  C   LIG d   1       2.339  16.184  -2.730  0.00  0.00     0.161 C 
BRANCH  47  48
ATOM     48  N   LIG d   1       3.341  17.073  -3.278  0.00  0.00    -0.228 N 
ATOM     49  N   LIG d   1       3.556  18.294  -2.751  0.00  0.00    -0.145 NA
ATOM     50  C   LIG d   1       4.546  18.743  -3.529  0.00  0.00     0.221 A 
ATOM     51  N   LIG d   1       4.984  17.865  -4.480  0.00  0.00    -0.201 NA
ATOM     52  C   LIG d   1       4.215  16.818  -4.290  0.00  0.00     0.197 A 
ENDBRANCH  47  48
ENDBRANCH   9  47
ENDBRANCH   3   9
TORSDOF 13
