REMARK  11 active torsions:
REMARK  status: ('A' for Active; 'I' for Inactive)
REMARK    1  A    between atoms: O_2  and  C_17 
REMARK    2  A    between atoms: O_2  and  C_19 
REMARK    3  A    between atoms: O_3  and  C_13 
REMARK    4  A    between atoms: O_4  and  C_14 
REMARK    5  A    between atoms: O_5  and  C_15 
REMARK    6  A    between atoms: O_6  and  C_18 
REMARK    7  A    between atoms: O_8  and  C_21 
REMARK    8  A    between atoms: O_11  and  C_30 
REMARK    9  A    between atoms: O_12  and  C_33 
REMARK   10  A    between atoms: C_16  and  C_18 
REMARK   11  A    between atoms: C_22  and  C_25 
ROOT
ATOM      1  C   UNK d   1       9.952 -11.143   2.365  0.00  0.00     0.106 A 
ATOM      2  C   UNK d   1       9.244 -12.352   2.220  0.00  0.00     0.054 A 
ATOM      3  C   UNK d   1      10.329 -10.716   3.650  0.00  0.00     0.101 A 
ATOM      4  C   UNK d   1       8.847 -13.127   3.327  0.00  0.00     0.001 A 
ATOM      5  C   UNK d   1       9.963 -11.485   4.755  0.00  0.00     0.040 A 
ATOM      6  C   UNK d   1       9.227 -12.664   4.594  0.00  0.00     0.017 A 
ENDROOT
BRANCH   1   7
ATOM      7  O   UNK d   1      10.308 -10.318   1.321  0.00  0.00    -0.315 OA
BRANCH   7   8
ATOM      8  C   UNK d   1       9.453  -9.211   1.019  0.00  0.00     0.299 C 
ATOM      9  O   UNK d   1       8.448  -9.625   0.090  0.00  0.00    -0.340 OA
ATOM     10  C   UNK d   1       7.503  -8.613  -0.232  0.00  0.00     0.253 C 
ATOM     11  C   UNK d   1       8.201  -7.412  -0.875  0.00  0.00     0.189 C 
ATOM     12  C   UNK d   1       9.337  -6.924   0.025  0.00  0.00     0.183 C 
ATOM     13  C   UNK d   1      10.287  -8.065   0.406  0.00  0.00     0.205 C 
BRANCH  10  14
ATOM     14  C   UNK d   1       6.427  -9.151  -1.192  0.00  0.00     0.172 C 
ATOM     15  O   UNK d   1       6.227 -10.330  -1.436  0.00  0.00    -0.648 OA
BRANCH  14  16
ATOM     16  O   UNK d   1       5.648  -8.174  -1.728  0.00  0.00    -0.774 OA
ATOM     17  H   UNK d   1       5.414  -7.477  -1.070  0.00  0.00     0.167 HD
ENDBRANCH  14  16
ENDBRANCH  10  14
BRANCH  11  18
ATOM     18  O   UNK d   1       7.259  -6.336  -1.055  0.00  0.00    -0.390 OA
ATOM     19  H   UNK d   1       6.518  -6.720  -1.570  0.00  0.00     0.210 HD
ENDBRANCH  11  18
BRANCH  12  20
ATOM     20  O   UNK d   1      10.063  -5.882  -0.647  0.00  0.00    -0.390 OA
ATOM     21  H   UNK d   1       9.437  -5.436  -1.248  0.00  0.00     0.210 HD
ENDBRANCH  12  20
BRANCH  13  22
ATOM     22  O   UNK d   1      11.237  -7.538   1.347  0.00  0.00    -0.388 OA
ATOM     23  H   UNK d   1      11.349  -8.232   2.025  0.00  0.00     0.210 HD
ENDBRANCH  13  22
ENDBRANCH   7   8
ENDBRANCH   1   7
BRANCH   3  24
ATOM     24  O   UNK d   1      11.040  -9.544   3.731  0.00  0.00    -0.353 OA
ATOM     25  C   UNK d   1      12.009  -9.443   4.768  0.00  0.00     0.210 C 
ENDBRANCH   3  24
BRANCH   4  26
ATOM     26  C   UNK d   1       8.041 -14.371   3.136  0.00  0.00     0.090 A 
ATOM     27  O   UNK d   1       7.404 -14.833   4.283  0.00  0.00    -0.309 OA
ATOM     28  C   UNK d   1       6.641 -15.975   4.210  0.00  0.00     0.095 A 
ATOM     29  C   UNK d   1       6.480 -16.720   3.040  0.00  0.00     0.081 A 
ATOM     30  C   UNK d   1       6.013 -16.376   5.391  0.00  0.00     0.075 A 
ATOM     31  C   UNK d   1       7.171 -16.244   1.826  0.00  0.00     0.190 A 
ATOM     32  C   UNK d   1       5.681 -17.874   3.062  0.00  0.00     0.085 A 
ATOM     33  O   UNK d   1       7.140 -16.806   0.739  0.00  0.00    -0.287 OA
ATOM     34  C   UNK d   1       7.954 -15.005   1.959  0.00  0.00     0.094 A 
ATOM     35  C   UNK d   1       5.050 -18.278   4.242  0.00  0.00     0.074 A 
ATOM     36  C   UNK d   1       5.225 -17.522   5.397  0.00  0.00     0.071 A 
BRANCH  32  37
ATOM     37  O   UNK d   1       5.505 -18.622   1.933  0.00  0.00    -0.360 OA
ATOM     38  H   UNK d   1       6.079 -18.312   1.216  0.00  0.00     0.217 HD
ENDBRANCH  32  37
BRANCH  36  39
ATOM     39  O   UNK d   1       4.632 -17.878   6.572  0.00  0.00    -0.361 OA
ATOM     40  H   UNK d   1       5.021 -17.361   7.298  0.00  0.00     0.217 HD
ENDBRANCH  36  39
ENDBRANCH   4  26
TORSDOF 11
