MODEL 1
REMARK minimizedAffinity -3.60184789REMARK CNNscore 0.730824947REMARK CNNaffinity 3.26884079REMARK  6 active torsions:
REMARK  status: ('A' for Active; 'I' for Inactive)
REMARK    1  A    between atoms: S_1  and  C_8 
REMARK    2  A    between atoms: S_1  and  C_10 
REMARK    3  A    between atoms: N_6  and  C_7 
REMARK    4  A    between atoms: C_7  and  C_9 
REMARK    5  A    between atoms: C_7  and  C_8 
REMARK    6  A    between atoms: C_10  and  C_11 
ROOT
ATOM      1  C   UNK d   1      23.883  -0.760  26.180  0.00  0.00     0.292 C 
ENDROOT
BRANCH   1   2
ATOM      2  N   UNK d   1      23.821  -1.191  27.622  0.00  0.00    -0.065 N 
ATOM      3  H   UNK d   1      24.399  -1.988  27.865  0.00  0.00     0.275 HD
ATOM      4  H   UNK d   1      22.843  -1.436  27.931  0.00  0.00     0.275 HD
ATOM      5  H   UNK d   1      24.085  -0.343  28.157  0.00  0.00     0.275 HD
ENDBRANCH   1   2
BRANCH   1   6
ATOM      6  C   UNK d   1      24.189   0.762  26.085  0.00  0.00     0.205 C 
ATOM      7  O   UNK d   1      23.971   1.201  24.908  0.00  0.00    -0.646 OA
ATOM      8  O   UNK d   1      24.554   1.353  27.130  0.00  0.00    -0.646 OA
ENDBRANCH   1   6
BRANCH   1   9
ATOM      9  C   UNK d   1      22.581  -1.076  25.446  0.00  0.00     0.118 C 
BRANCH   9  10
ATOM     10  S   UNK d   1      22.827  -2.282  24.072  0.00  0.00    -0.156 SA
BRANCH  10  11
ATOM     11  C   UNK d   1      24.507  -2.908  24.475  0.00  0.00     0.186 C 
BRANCH  11  12
ATOM     12  C   UNK d   1      24.429  -4.438  24.478  0.00  0.00     0.182 C 
ATOM     13  O   UNK d   1      24.628  -4.996  23.351  0.00  0.00    -0.647 OA
ATOM     14  O   UNK d   1      24.156  -4.985  25.578  0.00  0.00    -0.647 OA
ENDBRANCH  11  12
ENDBRANCH  10  11
ENDBRANCH   9  10
ENDBRANCH   1   9
TORSDOF 6
ENDMDL
MODEL 2
REMARK minimizedAffinity -2.81603384REMARK CNNscore 0.639082551REMARK CNNaffinity 3.06957912REMARK  6 active torsions:
REMARK  status: ('A' for Active; 'I' for Inactive)
REMARK    1  A    between atoms: S_1  and  C_8 
REMARK    2  A    between atoms: S_1  and  C_10 
REMARK    3  A    between atoms: N_6  and  C_7 
REMARK    4  A    between atoms: C_7  and  C_9 
REMARK    5  A    between atoms: C_7  and  C_8 
REMARK    6  A    between atoms: C_10  and  C_11 
ROOT
ATOM      1  C   UNK d   1      25.887  -0.822  15.572  0.00  0.00     0.292 C 
ENDROOT
BRANCH   1   2
ATOM      2  N   UNK d   1      27.054   0.129  15.614  0.00  0.00    -0.065 N 
ATOM      3  H   UNK d   1      27.720  -0.031  16.361  0.00  0.00     0.275 HD
ATOM      4  H   UNK d   1      26.755   1.136  15.701  0.00  0.00     0.275 HD
ATOM      5  H   UNK d   1      27.493   0.042  14.678  0.00  0.00     0.275 HD
ENDBRANCH   1   2
BRANCH   1   6
ATOM      6  C   UNK d   1      25.745  -1.438  14.150  0.00  0.00     0.205 C 
ATOM      7  O   UNK d   1      26.812  -2.044  13.804  0.00  0.00    -0.646 OA
ATOM      8  O   UNK d   1      24.644  -1.309  13.563  0.00  0.00    -0.646 OA
ENDBRANCH   1   6
BRANCH   1   9
ATOM      9  C   UNK d   1      24.586  -0.127  15.970  0.00  0.00     0.118 C 
BRANCH   9  10
ATOM     10  S   UNK d   1      23.729  -0.989  17.358  0.00  0.00    -0.156 SA
BRANCH  10  11
ATOM     11  C   UNK d   1      24.995  -2.244  17.802  0.00  0.00     0.186 C 
BRANCH  11  12
ATOM     12  C   UNK d   1      24.815  -2.559  19.291  0.00  0.00     0.182 C 
ATOM     13  O   UNK d   1      24.763  -1.545  20.060  0.00  0.00    -0.647 OA
ATOM     14  O   UNK d   1      24.761  -3.776  19.607  0.00  0.00    -0.647 OA
ENDBRANCH  11  12
ENDBRANCH  10  11
ENDBRANCH   9  10
ENDBRANCH   1   9
TORSDOF 6
ENDMDL
MODEL 3
REMARK minimizedAffinity -2.88527083REMARK CNNscore 0.61766237REMARK CNNaffinity 2.89240718REMARK  6 active torsions:
REMARK  status: ('A' for Active; 'I' for Inactive)
REMARK    1  A    between atoms: S_1  and  C_8 
REMARK    2  A    between atoms: S_1  and  C_10 
REMARK    3  A    between atoms: N_6  and  C_7 
REMARK    4  A    between atoms: C_7  and  C_9 
REMARK    5  A    between atoms: C_7  and  C_8 
REMARK    6  A    between atoms: C_10  and  C_11 
ROOT
ATOM      1  C   UNK d   1      -0.403   1.719   0.237  0.00  0.00     0.292 C 
ENDROOT
BRANCH   1   2
ATOM      2  N   UNK d   1      -1.076   0.746   1.169  0.00  0.00    -0.065 N 
ATOM      3  H   UNK d   1      -2.090   0.729   1.124  0.00  0.00     0.275 HD
ATOM      4  H   UNK d   1      -0.833   0.917   2.180  0.00  0.00     0.275 HD
ATOM      5  H   UNK d   1      -0.662  -0.174   0.927  0.00  0.00     0.275 HD
ENDBRANCH   1   2
BRANCH   1   6
ATOM      6  C   UNK d   1       0.692   0.995  -0.599  0.00  0.00     0.205 C 
ATOM      7  O   UNK d   1       0.169   0.260  -1.500  0.00  0.00    -0.646 OA
ATOM      8  O   UNK d   1       1.892   1.239  -0.328  0.00  0.00    -0.646 OA
ENDBRANCH   1   6
BRANCH   1   9
ATOM      9  C   UNK d   1       0.215   2.888   1.002  0.00  0.00     0.118 C 
BRANCH   9  10
ATOM     10  S   UNK d   1      -0.057   4.502   0.151  0.00  0.00    -0.156 SA
BRANCH  10  11
ATOM     11  C   UNK d   1      -1.869   4.424  -0.140  0.00  0.00     0.186 C 
BRANCH  11  12
ATOM     12  C   UNK d   1      -2.089   4.561  -1.650  0.00  0.00     0.182 C 
ATOM     13  O   UNK d   1      -2.489   3.506  -2.241  0.00  0.00    -0.647 OA
ATOM     14  O   UNK d   1      -1.833   5.684  -2.157  0.00  0.00    -0.647 OA
ENDBRANCH  11  12
ENDBRANCH  10  11
ENDBRANCH   9  10
ENDBRANCH   1   9
TORSDOF 6
ENDMDL
MODEL 4
REMARK minimizedAffinity -2.88050079REMARK CNNscore 0.577055573REMARK CNNaffinity 2.7460618REMARK  6 active torsions:
REMARK  status: ('A' for Active; 'I' for Inactive)
REMARK    1  A    between atoms: S_1  and  C_8 
REMARK    2  A    between atoms: S_1  and  C_10 
REMARK    3  A    between atoms: N_6  and  C_7 
REMARK    4  A    between atoms: C_7  and  C_9 
REMARK    5  A    between atoms: C_7  and  C_8 
REMARK    6  A    between atoms: C_10  and  C_11 
ROOT
ATOM      1  C   UNK d   1      -0.824   1.201  -0.841  0.00  0.00     0.292 C 
ENDROOT
BRANCH   1   2
ATOM      2  N   UNK d   1      -1.377   2.510  -1.340  0.00  0.00    -0.065 N 
ATOM      3  H   UNK d   1      -2.350   2.687  -1.113  0.00  0.00     0.275 HD
ATOM      4  H   UNK d   1      -1.298   2.613  -2.386  0.00  0.00     0.275 HD
ATOM      5  H   UNK d   1      -0.748   3.228  -0.934  0.00  0.00     0.275 HD
ENDBRANCH   1   2
BRANCH   1   6
ATOM      6  C   UNK d   1       0.493   1.439  -0.048  0.00  0.00     0.205 C 
ATOM      7  O   UNK d   1       0.248   1.824   1.142  0.00  0.00    -0.646 OA
ATOM      8  O   UNK d   1       1.579   1.198  -0.628  0.00  0.00    -0.646 OA
ENDBRANCH   1   6
BRANCH   1   9
ATOM      9  C   UNK d   1      -0.570   0.228  -1.991  0.00  0.00     0.118 C 
BRANCH   9  10
ATOM     10  S   UNK d   1      -0.669  -1.534  -1.453  0.00  0.00    -0.156 SA
BRANCH  10  11
ATOM     11  C   UNK d   1      -0.462  -2.387  -3.067  0.00  0.00     0.186 C 
BRANCH  11  12
ATOM     12  C   UNK d   1      -0.397  -3.889  -2.777  0.00  0.00     0.182 C 
ATOM     13  O   UNK d   1      -1.205  -4.610  -3.447  0.00  0.00    -0.647 OA
ATOM     14  O   UNK d   1       0.425  -4.258  -1.897  0.00  0.00    -0.647 OA
ENDBRANCH  11  12
ENDBRANCH  10  11
ENDBRANCH   9  10
ENDBRANCH   1   9
TORSDOF 6
ENDMDL
MODEL 5
REMARK minimizedAffinity -3.83208966REMARK CNNscore 0.574892938REMARK CNNaffinity 3.39378047REMARK  6 active torsions:
REMARK  status: ('A' for Active; 'I' for Inactive)
REMARK    1  A    between atoms: S_1  and  C_8 
REMARK    2  A    between atoms: S_1  and  C_10 
REMARK    3  A    between atoms: N_6  and  C_7 
REMARK    4  A    between atoms: C_7  and  C_9 
REMARK    5  A    between atoms: C_7  and  C_8 
REMARK    6  A    between atoms: C_10  and  C_11 
ROOT
ATOM      1  C   UNK d   1      10.077  -4.479  25.869  0.00  0.00     0.292 C 
ENDROOT
BRANCH   1   2
ATOM      2  N   UNK d   1      11.132  -5.485  25.490  0.00  0.00    -0.065 N 
ATOM      3  H   UNK d   1      12.045  -5.337  25.905  0.00  0.00     0.275 HD
ATOM      4  H   UNK d   1      11.289  -5.537  24.449  0.00  0.00     0.275 HD
ATOM      5  H   UNK d   1      10.726  -6.401  25.763  0.00  0.00     0.275 HD
ENDBRANCH   1   2
BRANCH   1   6
ATOM      6  C   UNK d   1       8.801  -5.204  26.386  0.00  0.00     0.205 C 
ATOM      7  O   UNK d   1       7.914  -5.277  25.473  0.00  0.00    -0.646 OA
ATOM      8  O   UNK d   1       8.811  -5.643  27.561  0.00  0.00    -0.646 OA
ENDBRANCH   1   6
BRANCH   1   9
ATOM      9  C   UNK d   1       9.720  -3.574  24.692  0.00  0.00     0.118 C 
BRANCH   9  10
ATOM     10  S   UNK d   1       9.726  -1.788  25.154  0.00  0.00    -0.156 SA
BRANCH  10  11
ATOM     11  C   UNK d   1      10.811  -1.107  23.838  0.00  0.00     0.186 C 
BRANCH  11  12
ATOM     12  C   UNK d   1      10.058  -1.258  22.512  0.00  0.00     0.182 C 
ATOM     13  O   UNK d   1       8.870  -0.801  22.504  0.00  0.00    -0.647 OA
ATOM     14  O   UNK d   1      10.675  -1.834  21.577  0.00  0.00    -0.647 OA
ENDBRANCH  11  12
ENDBRANCH  10  11
ENDBRANCH   9  10
ENDBRANCH   1   9
TORSDOF 6
ENDMDL
MODEL 6
REMARK minimizedAffinity -2.891536REMARK CNNscore 0.572140515REMARK CNNaffinity 2.81130362REMARK  6 active torsions:
REMARK  status: ('A' for Active; 'I' for Inactive)
REMARK    1  A    between atoms: S_1  and  C_8 
REMARK    2  A    between atoms: S_1  and  C_10 
REMARK    3  A    between atoms: N_6  and  C_7 
REMARK    4  A    between atoms: C_7  and  C_9 
REMARK    5  A    between atoms: C_7  and  C_8 
REMARK    6  A    between atoms: C_10  and  C_11 
ROOT
ATOM      1  C   UNK d   1      -1.632  -1.414   8.877  0.00  0.00     0.292 C 
ENDROOT
BRANCH   1   2
ATOM      2  N   UNK d   1      -2.857  -2.180   9.303  0.00  0.00    -0.065 N 
ATOM      3  H   UNK d   1      -2.971  -3.093   8.877  0.00  0.00     0.275 HD
ATOM      4  H   UNK d   1      -3.751  -1.655   9.113  0.00  0.00     0.275 HD
ATOM      5  H   UNK d   1      -2.776  -2.241  10.336  0.00  0.00     0.275 HD
ENDBRANCH   1   2
BRANCH   1   6
ATOM      6  C   UNK d   1      -0.833  -0.936  10.123  0.00  0.00     0.205 C 
ATOM      7  O   UNK d   1      -0.328   0.219   9.930  0.00  0.00    -0.646 OA
ATOM      8  O   UNK d   1      -0.816  -1.684  11.130  0.00  0.00    -0.646 OA
ENDBRANCH   1   6
BRANCH   1   9
ATOM      9  C   UNK d   1      -1.999  -0.215   8.003  0.00  0.00     0.118 C 
BRANCH   9  10
ATOM     10  S   UNK d   1      -1.118  -0.234   6.383  0.00  0.00    -0.156 SA
BRANCH  10  11
ATOM     11  C   UNK d   1      -2.479   0.273   5.258  0.00  0.00     0.186 C 
BRANCH  11  12
ATOM     12  C   UNK d   1      -3.246  -0.998   4.877  0.00  0.00     0.182 C 
ATOM     13  O   UNK d   1      -2.615  -1.810   4.126  0.00  0.00    -0.647 OA
ATOM     14  O   UNK d   1      -4.420  -1.102   5.320  0.00  0.00    -0.647 OA
ENDBRANCH  11  12
ENDBRANCH  10  11
ENDBRANCH   9  10
ENDBRANCH   1   9
TORSDOF 6
ENDMDL
MODEL 7
REMARK minimizedAffinity -3.1169579REMARK CNNscore 0.563064873REMARK CNNaffinity 3.12145233REMARK  6 active torsions:
REMARK  status: ('A' for Active; 'I' for Inactive)
REMARK    1  A    between atoms: S_1  and  C_8 
REMARK    2  A    between atoms: S_1  and  C_10 
REMARK    3  A    between atoms: N_6  and  C_7 
REMARK    4  A    between atoms: C_7  and  C_9 
REMARK    5  A    between atoms: C_7  and  C_8 
REMARK    6  A    between atoms: C_10  and  C_11 
ROOT
ATOM      1  C   UNK d   1      22.366  -0.426  23.017  0.00  0.00     0.292 C 
ENDROOT
BRANCH   1   2
ATOM      2  N   UNK d   1      21.467  -1.575  23.395  0.00  0.00    -0.065 N 
ATOM      3  H   UNK d   1      20.485  -1.452  23.173  0.00  0.00     0.275 HD
ATOM      4  H   UNK d   1      21.507  -1.801  24.423  0.00  0.00     0.275 HD
ATOM      5  H   UNK d   1      21.876  -2.394  22.907  0.00  0.00     0.275 HD
ENDBRANCH   1   2
BRANCH   1   6
ATOM      6  C   UNK d   1      23.570  -0.938  22.176  0.00  0.00     0.205 C 
ATOM      7  O   UNK d   1      24.576  -0.164  22.298  0.00  0.00    -0.646 OA
ATOM      8  O   UNK d   1      23.430  -2.014  21.546  0.00  0.00    -0.646 OA
ENDBRANCH   1   6
BRANCH   1   9
ATOM      9  C   UNK d   1      22.871   0.317  24.252  0.00  0.00     0.118 C 
BRANCH   9  10
ATOM     10  S   UNK d   1      22.874  -0.749  25.758  0.00  0.00    -0.156 SA
BRANCH  10  11
ATOM     11  C   UNK d   1      24.635  -1.271  25.792  0.00  0.00     0.186 C 
BRANCH  11  12
ATOM     12  C   UNK d   1      24.696  -2.691  25.222  0.00  0.00     0.182 C 
ATOM     13  O   UNK d   1      23.579  -3.179  24.853  0.00  0.00    -0.647 OA
ATOM     14  O   UNK d   1      25.829  -3.239  25.194  0.00  0.00    -0.647 OA
ENDBRANCH  11  12
ENDBRANCH  10  11
ENDBRANCH   9  10
ENDBRANCH   1   9
TORSDOF 6
ENDMDL
MODEL 8
REMARK minimizedAffinity -2.95466399REMARK CNNscore 0.562330663REMARK CNNaffinity 2.84021759REMARK  6 active torsions:
REMARK  status: ('A' for Active; 'I' for Inactive)
REMARK    1  A    between atoms: S_1  and  C_8 
REMARK    2  A    between atoms: S_1  and  C_10 
REMARK    3  A    between atoms: N_6  and  C_7 
REMARK    4  A    between atoms: C_7  and  C_9 
REMARK    5  A    between atoms: C_7  and  C_8 
REMARK    6  A    between atoms: C_10  and  C_11 
ROOT
ATOM      1  C   UNK d   1      10.676   4.193 -20.461  0.00  0.00     0.292 C 
ENDROOT
BRANCH   1   2
ATOM      2  N   UNK d   1      11.266   4.232 -21.847  0.00  0.00    -0.065 N 
ATOM      3  H   UNK d   1      10.850   4.907 -22.480  0.00  0.00     0.275 HD
ATOM      4  H   UNK d   1      11.213   3.301 -22.338  0.00  0.00     0.275 HD
ATOM      5  H   UNK d   1      12.275   4.417 -21.693  0.00  0.00     0.275 HD
ENDBRANCH   1   2
BRANCH   1   6
ATOM      6  C   UNK d   1      11.800   4.319 -19.393  0.00  0.00     0.205 C 
ATOM      7  O   UNK d   1      12.724   3.464 -19.597  0.00  0.00    -0.646 OA
ATOM      8  O   UNK d   1      11.691   5.224 -18.531  0.00  0.00    -0.646 OA
ENDBRANCH   1   6
BRANCH   1   9
ATOM      9  C   UNK d   1       9.880   2.911 -20.230  0.00  0.00     0.118 C 
BRANCH   9  10
ATOM     10  S   UNK d   1       8.829   3.002 -18.717  0.00  0.00    -0.156 SA
BRANCH  10  11
ATOM     11  C   UNK d   1       7.313   3.774 -19.411  0.00  0.00     0.186 C 
BRANCH  11  12
ATOM     12  C   UNK d   1       7.402   5.277 -19.126  0.00  0.00     0.182 C 
ATOM     13  O   UNK d   1       8.344   5.629 -18.345  0.00  0.00    -0.647 OA
ATOM     14  O   UNK d   1       6.529   6.005 -19.667  0.00  0.00    -0.647 OA
ENDBRANCH  11  12
ENDBRANCH  10  11
ENDBRANCH   9  10
ENDBRANCH   1   9
TORSDOF 6
ENDMDL
MODEL 9
REMARK minimizedAffinity -2.94613314REMARK CNNscore 0.544989049REMARK CNNaffinity 2.78363371REMARK  6 active torsions:
REMARK  status: ('A' for Active; 'I' for Inactive)
REMARK    1  A    between atoms: S_1  and  C_8 
REMARK    2  A    between atoms: S_1  and  C_10 
REMARK    3  A    between atoms: N_6  and  C_7 
REMARK    4  A    between atoms: C_7  and  C_9 
REMARK    5  A    between atoms: C_7  and  C_8 
REMARK    6  A    between atoms: C_10  and  C_11 
ROOT
ATOM      1  C   UNK d   1       0.837  -6.442  20.926  0.00  0.00     0.292 C 
ENDROOT
BRANCH   1   2
ATOM      2  N   UNK d   1       0.038  -5.298  21.494  0.00  0.00    -0.065 N 
ATOM      3  H   UNK d   1       0.578  -4.491  21.786  0.00  0.00     0.275 HD
ATOM      4  H   UNK d   1      -0.539  -5.581  22.329  0.00  0.00     0.275 HD
ATOM      5  H   UNK d   1      -0.640  -5.060  20.745  0.00  0.00     0.275 HD
ENDBRANCH   1   2
BRANCH   1   6
ATOM      6  C   UNK d   1       0.262  -6.869  19.545  0.00  0.00     0.205 C 
ATOM      7  O   UNK d   1       1.059  -7.660  18.941  0.00  0.00    -0.646 OA
ATOM      8  O   UNK d   1      -0.872  -6.441  19.225  0.00  0.00    -0.646 OA
ENDBRANCH   1   6
BRANCH   1   9
ATOM      9  C   UNK d   1       0.851  -7.638  21.876  0.00  0.00     0.118 C 
BRANCH   9  10
ATOM     10  S   UNK d   1       1.299  -7.158  23.600  0.00  0.00    -0.156 SA
BRANCH  10  11
ATOM     11  C   UNK d   1       3.092  -6.818  23.395  0.00  0.00     0.186 C 
BRANCH  11  12
ATOM     12  C   UNK d   1       3.249  -5.301  23.251  0.00  0.00     0.182 C 
ATOM     13  O   UNK d   1       4.363  -4.911  22.771  0.00  0.00    -0.647 OA
ATOM     14  O   UNK d   1       2.281  -4.595  23.638  0.00  0.00    -0.647 OA
ENDBRANCH  11  12
ENDBRANCH  10  11
ENDBRANCH   9  10
ENDBRANCH   1   9
TORSDOF 6
ENDMDL
