MODEL 1
REMARK VINA RESULT:      -5.5      0.000      0.000
REMARK  2 active torsions:
REMARK  status: ('A' for Active; 'I' for Inactive)
REMARK    1  A    between atoms: O_1  and  C_9 
REMARK    2  A    between atoms: N_3  and  C_4 
REMARK       I    between atoms: N_3  and  C_10 
ROOT
ATOM      1  C   LIG d   1       7.711  -2.612  19.048  0.00  0.00     0.034 A 
ATOM      2  C   LIG d   1       7.283  -3.861  19.506  0.00  0.00     0.032 A 
ATOM      3  C   LIG d   1       8.762  -2.554  18.122  0.00  0.00     0.032 A 
ATOM      4  C   LIG d   1       7.892  -5.034  19.047  0.00  0.00     0.039 A 
ATOM      5  C   LIG d   1       9.372  -3.725  17.663  0.00  0.00     0.039 A 
ATOM      6  C   LIG d   1       8.933  -4.955  18.129  0.00  0.00     0.065 A 
ENDROOT
BRANCH   1   7
ATOM      7  N   LIG d   1       7.148  -1.386  19.459  0.00  0.00    -0.328 N 
ATOM      8  C   LIG d   1       6.750  -0.331  18.658  0.00  0.00     0.218 C 
ATOM      9  O   LIG d   1       6.809  -0.263  17.436  0.00  0.00    -0.274 OA
ATOM     10  C   LIG d   1       6.199   0.813  19.472  0.00  0.00     0.117 C 
ATOM     11  H   LIG d   1       7.023  -1.270  20.456  0.00  0.00     0.169 HD
ENDBRANCH   1   7
BRANCH   6  12
ATOM     12  O   LIG d   1       9.553  -6.073  17.657  0.00  0.00    -0.361 OA
ATOM     13  H   LIG d   1      10.022  -5.842  16.838  0.00  0.00     0.217 HD
ENDBRANCH   6  12
TORSDOF 2
ENDMDL
MODEL 2
REMARK VINA RESULT:      -5.3     26.845     27.740
REMARK  2 active torsions:
REMARK  status: ('A' for Active; 'I' for Inactive)
REMARK    1  A    between atoms: O_1  and  C_9 
REMARK    2  A    between atoms: N_3  and  C_4 
REMARK       I    between atoms: N_3  and  C_10 
ROOT
ATOM      1  C   LIG d   1      19.130   7.421  -4.032  0.00  0.00     0.034 A 
ATOM      2  C   LIG d   1      20.085   7.305  -5.045  0.00  0.00     0.032 A 
ATOM      3  C   LIG d   1      17.849   6.894  -4.245  0.00  0.00     0.032 A 
ATOM      4  C   LIG d   1      19.768   6.673  -6.253  0.00  0.00     0.039 A 
ATOM      5  C   LIG d   1      17.530   6.262  -5.450  0.00  0.00     0.039 A 
ATOM      6  C   LIG d   1      18.492   6.157  -6.445  0.00  0.00     0.065 A 
ENDROOT
BRANCH   1   7
ATOM      7  N   LIG d   1      19.372   8.040  -2.788  0.00  0.00    -0.328 N 
ATOM      8  C   LIG d   1      19.776   9.344  -2.560  0.00  0.00     0.218 C 
ATOM      9  O   LIG d   1      19.999  10.209  -3.399  0.00  0.00    -0.274 OA
ATOM     10  C   LIG d   1      19.934   9.631  -1.088  0.00  0.00     0.117 C 
ATOM     11  H   LIG d   1      19.232   7.460  -1.971  0.00  0.00     0.169 HD
ENDBRANCH   1   7
BRANCH   6  12
ATOM     12  O   LIG d   1      18.142   5.534  -7.605  0.00  0.00    -0.361 OA
ATOM     13  H   LIG d   1      18.948   5.197  -8.029  0.00  0.00     0.217 HD
ENDBRANCH   6  12
TORSDOF 2
ENDMDL
MODEL 3
REMARK VINA RESULT:      -5.0      3.743      4.460
REMARK  2 active torsions:
REMARK  status: ('A' for Active; 'I' for Inactive)
REMARK    1  A    between atoms: O_1  and  C_9 
REMARK    2  A    between atoms: N_3  and  C_4 
REMARK       I    between atoms: N_3  and  C_10 
ROOT
ATOM      1  C   LIG d   1       9.232  -0.611  20.608  0.00  0.00     0.034 A 
ATOM      2  C   LIG d   1       8.815  -1.885  21.003  0.00  0.00     0.032 A 
ATOM      3  C   LIG d   1       8.650  -0.030  19.473  0.00  0.00     0.032 A 
ATOM      4  C   LIG d   1       7.833  -2.569  20.279  0.00  0.00     0.039 A 
ATOM      5  C   LIG d   1       7.669  -0.712  18.748  0.00  0.00     0.039 A 
ATOM      6  C   LIG d   1       7.268  -1.976  19.156  0.00  0.00     0.065 A 
ENDROOT
BRANCH   1   7
ATOM      7  N   LIG d   1      10.212   0.143  21.285  0.00  0.00    -0.328 N 
ATOM      8  C   LIG d   1      11.434  -0.298  21.762  0.00  0.00     0.218 C 
ATOM      9  O   LIG d   1      11.897  -1.430  21.683  0.00  0.00    -0.274 OA
ATOM     10  C   LIG d   1      12.204   0.809  22.438  0.00  0.00     0.117 C 
ATOM     11  H   LIG d   1       9.993   1.118  21.438  0.00  0.00     0.169 HD
ENDBRANCH   1   7
BRANCH   6  12
ATOM     12  O   LIG d   1       6.309  -2.607  18.422  0.00  0.00    -0.361 OA
ATOM     13  H   LIG d   1       6.392  -2.322  17.497  0.00  0.00     0.217 HD
ENDBRANCH   6  12
TORSDOF 2
ENDMDL
MODEL 4
REMARK VINA RESULT:      -4.9     24.695     25.896
REMARK  2 active torsions:
REMARK  status: ('A' for Active; 'I' for Inactive)
REMARK    1  A    between atoms: O_1  and  C_9 
REMARK    2  A    between atoms: N_3  and  C_4 
REMARK       I    between atoms: N_3  and  C_10 
ROOT
ATOM      1  C   LIG d   1      14.461  -1.947  -6.379  0.00  0.00     0.034 A 
ATOM      2  C   LIG d   1      14.079  -0.681  -6.830  0.00  0.00     0.032 A 
ATOM      3  C   LIG d   1      14.813  -2.108  -5.032  0.00  0.00     0.032 A 
ATOM      4  C   LIG d   1      14.046   0.408  -5.952  0.00  0.00     0.039 A 
ATOM      5  C   LIG d   1      14.781  -1.022  -4.153  0.00  0.00     0.039 A 
ATOM      6  C   LIG d   1      14.398   0.227  -4.620  0.00  0.00     0.065 A 
ENDROOT
BRANCH   1   7
ATOM      7  N   LIG d   1      14.518  -3.093  -7.199  0.00  0.00    -0.328 N 
ATOM      8  C   LIG d   1      13.461  -3.883  -7.618  0.00  0.00     0.218 C 
ATOM      9  O   LIG d   1      12.274  -3.733  -7.356  0.00  0.00    -0.274 OA
ATOM     10  C   LIG d   1      13.927  -5.027  -8.483  0.00  0.00     0.117 C 
ATOM     11  H   LIG d   1      15.439  -3.365  -7.516  0.00  0.00     0.169 HD
ENDBRANCH   1   7
BRANCH   6  12
ATOM     12  O   LIG d   1      14.380   1.260  -3.731  0.00  0.00    -0.361 OA
ATOM     13  H   LIG d   1      14.566   0.908  -2.845  0.00  0.00     0.217 HD
ENDBRANCH   6  12
TORSDOF 2
ENDMDL
MODEL 5
REMARK VINA RESULT:      -4.9      3.550      4.384
REMARK  2 active torsions:
REMARK  status: ('A' for Active; 'I' for Inactive)
REMARK    1  A    between atoms: O_1  and  C_9 
REMARK    2  A    between atoms: N_3  and  C_4 
REMARK       I    between atoms: N_3  and  C_10 
ROOT
ATOM      1  C   LIG d   1       9.404  -0.652  20.336  0.00  0.00     0.034 A 
ATOM      2  C   LIG d   1       8.663   0.012  19.355  0.00  0.00     0.032 A 
ATOM      3  C   LIG d   1       9.049  -1.964  20.679  0.00  0.00     0.032 A 
ATOM      4  C   LIG d   1       7.585  -0.621  18.725  0.00  0.00     0.039 A 
ATOM      5  C   LIG d   1       7.974  -2.599  20.052  0.00  0.00     0.039 A 
ATOM      6  C   LIG d   1       7.250  -1.922  19.080  0.00  0.00     0.065 A 
ENDROOT
BRANCH   1   7
ATOM      7  N   LIG d   1      10.502  -0.085  21.014  0.00  0.00    -0.328 N 
ATOM      8  C   LIG d   1      10.553   1.138  21.660  0.00  0.00     0.218 C 
ATOM      9  O   LIG d   1       9.650   1.959  21.768  0.00  0.00    -0.274 OA
ATOM     10  C   LIG d   1      11.912   1.395  22.262  0.00  0.00     0.117 C 
ATOM     11  H   LIG d   1      11.348  -0.639  21.026  0.00  0.00     0.169 HD
ENDBRANCH   1   7
BRANCH   6  12
ATOM     12  O   LIG d   1       6.209  -2.576  18.492  0.00  0.00    -0.361 OA
ATOM     13  H   LIG d   1       5.481  -2.636  19.133  0.00  0.00     0.217 HD
ENDBRANCH   6  12
TORSDOF 2
ENDMDL
MODEL 6
REMARK VINA RESULT:      -4.9     25.804     26.816
REMARK  2 active torsions:
REMARK  status: ('A' for Active; 'I' for Inactive)
REMARK    1  A    between atoms: O_1  and  C_9 
REMARK    2  A    between atoms: N_3  and  C_4 
REMARK       I    between atoms: N_3  and  C_10 
ROOT
ATOM      1  C   LIG d   1      20.496   8.898  -2.200  0.00  0.00     0.034 A 
ATOM      2  C   LIG d   1      19.463   9.516  -1.492  0.00  0.00     0.032 A 
ATOM      3  C   LIG d   1      21.739   8.729  -1.575  0.00  0.00     0.032 A 
ATOM      4  C   LIG d   1      19.665   9.958  -0.179  0.00  0.00     0.039 A 
ATOM      5  C   LIG d   1      21.943   9.169  -0.264  0.00  0.00     0.039 A 
ATOM      6  C   LIG d   1      20.905   9.781   0.423  0.00  0.00     0.065 A 
ENDROOT
BRANCH   1   7
ATOM      7  N   LIG d   1      20.372   8.424  -3.522  0.00  0.00    -0.328 N 
ATOM      8  C   LIG d   1      19.640   7.335  -3.962  0.00  0.00     0.218 C 
ATOM      9  O   LIG d   1      18.957   6.577  -3.283  0.00  0.00    -0.274 OA
ATOM     10  C   LIG d   1      19.763   7.143  -5.453  0.00  0.00     0.117 C 
ATOM     11  H   LIG d   1      20.879   8.942  -4.227  0.00  0.00     0.169 HD
ENDBRANCH   1   7
BRANCH   6  12
ATOM     12  O   LIG d   1      21.144  10.196   1.699  0.00  0.00    -0.361 OA
ATOM     13  H   LIG d   1      21.641  11.030   1.663  0.00  0.00     0.217 HD
ENDBRANCH   6  12
TORSDOF 2
ENDMDL
MODEL 7
REMARK VINA RESULT:      -4.9     27.549     28.209
REMARK  2 active torsions:
REMARK  status: ('A' for Active; 'I' for Inactive)
REMARK    1  A    between atoms: O_1  and  C_9 
REMARK    2  A    between atoms: N_3  and  C_4 
REMARK       I    between atoms: N_3  and  C_10 
ROOT
ATOM      1  C   LIG d   1       3.336  -4.181  -9.264  0.00  0.00     0.034 A 
ATOM      2  C   LIG d   1       3.009  -4.729  -8.020  0.00  0.00     0.032 A 
ATOM      3  C   LIG d   1       4.289  -3.155  -9.322  0.00  0.00     0.032 A 
ATOM      4  C   LIG d   1       3.624  -4.263  -6.853  0.00  0.00     0.039 A 
ATOM      5  C   LIG d   1       4.904  -2.688  -8.157  0.00  0.00     0.039 A 
ATOM      6  C   LIG d   1       4.567  -3.245  -6.932  0.00  0.00     0.065 A 
ENDROOT
BRANCH   1   7
ATOM      7  N   LIG d   1       2.763  -4.596 -10.483  0.00  0.00    -0.328 N 
ATOM      8  C   LIG d   1       1.759  -3.970 -11.200  0.00  0.00     0.218 C 
ATOM      9  O   LIG d   1       1.178  -2.930 -10.910  0.00  0.00    -0.274 OA
ATOM     10  C   LIG d   1       1.412  -4.728 -12.457  0.00  0.00     0.117 C 
ATOM     11  H   LIG d   1       3.132  -5.452 -10.876  0.00  0.00     0.169 HD
ENDBRANCH   1   7
BRANCH   6  12
ATOM     12  O   LIG d   1       5.190  -2.762  -5.820  0.00  0.00    -0.361 OA
ATOM     13  H   LIG d   1       5.611  -3.504  -5.356  0.00  0.00     0.217 HD
ENDBRANCH   6  12
TORSDOF 2
ENDMDL
MODEL 8
REMARK VINA RESULT:      -4.9     23.424     24.445
REMARK  2 active torsions:
REMARK  status: ('A' for Active; 'I' for Inactive)
REMARK    1  A    between atoms: O_1  and  C_9 
REMARK    2  A    between atoms: N_3  and  C_4 
REMARK       I    between atoms: N_3  and  C_10 
ROOT
ATOM      1  C   LIG d   1      15.484  -2.723  -4.611  0.00  0.00     0.034 A 
ATOM      2  C   LIG d   1      14.493  -2.804  -5.592  0.00  0.00     0.032 A 
ATOM      3  C   LIG d   1      15.581  -1.555  -3.841  0.00  0.00     0.032 A 
ATOM      4  C   LIG d   1      13.610  -1.739  -5.802  0.00  0.00     0.039 A 
ATOM      5  C   LIG d   1      14.700  -0.490  -4.050  0.00  0.00     0.039 A 
ATOM      6  C   LIG d   1      13.723  -0.590  -5.028  0.00  0.00     0.065 A 
ENDROOT
BRANCH   1   7
ATOM      7  N   LIG d   1      16.408  -3.752  -4.336  0.00  0.00    -0.328 N 
ATOM      8  C   LIG d   1      16.614  -4.401  -3.132  0.00  0.00     0.218 C 
ATOM      9  O   LIG d   1      16.027  -4.205  -2.074  0.00  0.00    -0.274 OA
ATOM     10  C   LIG d   1      17.699  -5.443  -3.236  0.00  0.00     0.117 C 
ATOM     11  H   LIG d   1      16.986  -4.046  -5.113  0.00  0.00     0.169 HD
ENDBRANCH   1   7
BRANCH   6  12
ATOM     12  O   LIG d   1      12.884   0.471  -5.200  0.00  0.00    -0.361 OA
ATOM     13  H   LIG d   1      12.241   0.245  -5.893  0.00  0.00     0.217 HD
ENDBRANCH   6  12
TORSDOF 2
ENDMDL
MODEL 9
REMARK VINA RESULT:      -4.8     45.155     46.368
REMARK  2 active torsions:
REMARK  status: ('A' for Active; 'I' for Inactive)
REMARK    1  A    between atoms: O_1  and  C_9 
REMARK    2  A    between atoms: N_3  and  C_4 
REMARK       I    between atoms: N_3  and  C_10 
ROOT
ATOM      1  C   LIG d   1      11.297  21.228 -20.939  0.00  0.00     0.034 A 
ATOM      2  C   LIG d   1      10.706  20.873 -19.723  0.00  0.00     0.032 A 
ATOM      3  C   LIG d   1      12.243  22.262 -20.955  0.00  0.00     0.032 A 
ATOM      4  C   LIG d   1      11.054  21.537 -18.541  0.00  0.00     0.039 A 
ATOM      5  C   LIG d   1      12.593  22.926 -19.776  0.00  0.00     0.039 A 
ATOM      6  C   LIG d   1      11.996  22.559 -18.579  0.00  0.00     0.065 A 
ENDROOT
BRANCH   1   7
ATOM      7  N   LIG d   1      11.002  20.607 -22.170  0.00  0.00    -0.328 N 
ATOM      8  C   LIG d   1      11.815  19.763 -22.904  0.00  0.00     0.218 C 
ATOM      9  O   LIG d   1      12.949  19.393 -22.621  0.00  0.00    -0.274 OA
ATOM     10  C   LIG d   1      11.145  19.306 -24.175  0.00  0.00     0.117 C 
ATOM     11  H   LIG d   1      10.088  20.805 -22.557  0.00  0.00     0.169 HD
ENDBRANCH   1   7
BRANCH   6  12
ATOM     12  O   LIG d   1      12.364  23.231 -17.452  0.00  0.00    -0.361 OA
ATOM     13  H   LIG d   1      12.755  22.596 -16.829  0.00  0.00     0.217 HD
ENDBRANCH   6  12
TORSDOF 2
ENDMDL
