REMARK  11 active torsions:
REMARK  status: ('A' for Active; 'I' for Inactive)
REMARK    1  A    between atoms: O_1  and  C_16 
REMARK    2  A    between atoms: O_1  and  C_23 
REMARK    3  A    between atoms: O_2  and  C_20 
REMARK    4  A    between atoms: N_8  and  C_22 
REMARK    5  A    between atoms: N_8  and  C_26 
REMARK    6  A    between atoms: N_9  and  C_24 
REMARK    7  A    between atoms: C_10  and  C_13 
REMARK    8  A    between atoms: C_11  and  C_16 
REMARK    9  A    between atoms: C_12  and  C_20 
REMARK   10  A    between atoms: C_22  and  C_23 
REMARK   11  A    between atoms: C_26  and  C_28 
ROOT
ATOM      1  N   LIG d   1       2.734  25.551   9.100  0.00  0.00    -0.362 N 
ATOM      2  C   LIG d   1       0.724  23.568   9.187  0.00  0.00     0.101 C 
ATOM      3  C   LIG d   1       2.220  23.245   9.233  0.00  0.00     0.052 C 
ATOM      4  C   LIG d   1       0.427  25.056   9.276  0.00  0.00     0.052 C 
ATOM      5  C   LIG d   1       3.148  24.230   9.194  0.00  0.00     0.018 C 
ATOM      6  C   LIG d   1       1.417  25.973   9.205  0.00  0.00     0.018 C 
ATOM      7  C   LIG d   1       4.636  24.017   9.295  0.00  0.00     0.069 C 
ATOM      8  C   LIG d   1       1.192  27.463   9.277  0.00  0.00     0.069 C 
ATOM      9  H   LIG d   1       3.453  26.273   9.142  0.00  0.00     0.165 HD
ENDROOT
BRANCH   3  10
ATOM     10  C   LIG d   1       2.516  21.799   9.311  0.00  0.00     0.292 C 
ATOM     11  O   LIG d   1       2.792  21.211  10.347  0.00  0.00    -0.259 OA
BRANCH  10  12
ATOM     12  O   LIG d   1       2.225  21.169   8.140  0.00  0.00    -0.316 OA
BRANCH  12  13
ATOM     13  C   LIG d   1       3.147  20.123   7.792  0.00  0.00     0.206 C 
BRANCH  13  14
ATOM     14  C   LIG d   1       2.835  18.864   8.613  0.00  0.00     0.261 C 
BRANCH  14  15
ATOM     15  N   LIG d   1       1.354  18.662   8.862  0.00  0.00    -0.069 N 
ATOM     16  C   LIG d   1       0.864  17.328   8.349  0.00  0.00     0.270 C 
ATOM     17  H   LIG d   1       0.829  19.392   8.367  0.00  0.00     0.279 HD
BRANCH  15  18
ATOM     18  C   LIG d   1       1.048  18.844  10.340  0.00  0.00     0.273 C 
BRANCH  18  19
ATOM     19  C   LIG d   1      -0.147  19.710  10.628  0.00  0.00    -0.033 A 
ATOM     20  C   LIG d   1       0.024  20.958  11.247  0.00  0.00     0.009 A 
ATOM     21  C   LIG d   1      -1.075  21.777  11.505  0.00  0.00     0.001 A 
ATOM     22  C   LIG d   1      -2.356  21.358  11.150  0.00  0.00     0.000 A 
ATOM     23  C   LIG d   1      -2.538  20.124  10.530  0.00  0.00     0.001 A 
ATOM     24  C   LIG d   1      -1.441  19.303  10.265  0.00  0.00     0.009 A 
ENDBRANCH  18  19
ENDBRANCH  15  18
ENDBRANCH  14  15
ENDBRANCH  13  14
ENDBRANCH  12  13
ENDBRANCH  10  12
ENDBRANCH   3  10
BRANCH   2  25
ATOM     25  C   LIG d   1       0.075  22.965   7.929  0.00  0.00    -0.042 A 
ATOM     26  C   LIG d   1      -0.549  21.709   7.995  0.00  0.00     0.044 A 
ATOM     27  C   LIG d   1      -1.161  21.176   6.853  0.00  0.00     0.103 A 
ATOM     28  C   LIG d   1      -1.157  21.872   5.638  0.00  0.00     0.036 A 
ATOM     29  C   LIG d   1      -0.544  23.122   5.572  0.00  0.00     0.003 A 
ATOM     30  C   LIG d   1       0.062  23.666   6.708  0.00  0.00     0.008 A 
BRANCH  27  31
ATOM     31  N   LIG d   1      -1.784  19.855   6.919  0.00  0.00    -0.116 N 
ATOM     32  O   LIG d   1      -1.073  18.901   7.259  0.00  0.00    -0.532 OA
ATOM     33  O   LIG d   1      -2.973  19.773   6.576  0.00  0.00    -0.532 OA
ENDBRANCH  27  31
ENDBRANCH   2  25
BRANCH   4  34
ATOM     34  C   LIG d   1      -0.992  25.455   9.421  0.00  0.00     0.291 C 
ATOM     35  O   LIG d   1      -1.733  25.076  10.313  0.00  0.00    -0.260 OA
BRANCH  34  36
ATOM     36  O   LIG d   1      -1.322  26.297   8.409  0.00  0.00    -0.323 OA
ATOM     37  C   LIG d   1      -2.383  25.822   7.577  0.00  0.00     0.213 C 
ENDBRANCH  34  36
ENDBRANCH   4  34
TORSDOF 11
