MODEL 1
REMARK minimizedAffinity -6.45785856REMARK CNNscore 0.736408889REMARK CNNaffinity 5.21656609REMARK  8 active torsions:
REMARK  status: ('A' for Active; 'I' for Inactive)
REMARK    1  A    between atoms: S_1  and  N_7 
REMARK    2  A    between atoms: S_1  and  C_11 
REMARK    3  A    between atoms: O_4  and  C_22 
REMARK    4  A    between atoms: N_7  and  C_17 
REMARK    5  A    between atoms: N_8  and  N_10 
REMARK    6  A    between atoms: N_8  and  C_14 
REMARK    7  A    between atoms: N_10  and  C_18 
REMARK    8  A    between atoms: C_20  and  C_28 
ROOT
ATOM      1  C   LIG d   1      24.349  -0.225  18.749  0.00  0.00     0.075 A 
ATOM      2  C   LIG d   1      23.155  -0.941  18.704  0.00  0.00     0.027 A 
ATOM      3  C   LIG d   1      25.107  -0.180  19.918  0.00  0.00     0.027 A 
ATOM      4  C   LIG d   1      23.424  -1.540  21.064  0.00  0.00     0.079 A 
ATOM      5  C   LIG d   1      22.703  -1.584  19.860  0.00  0.00     0.035 A 
ATOM      6  C   LIG d   1      24.632  -0.828  21.060  0.00  0.00     0.035 A 
ENDROOT
BRANCH   4   7
ATOM      7  N   LIG d   1      23.031  -2.111  22.227  0.00  0.00    -0.150 NA
BRANCH   7   8
ATOM      8  N   LIG d   1      21.786  -1.563  22.819  0.00  0.00    -0.150 NA
BRANCH   8   9
ATOM      9  C   LIG d   1      21.888  -1.123  24.107  0.00  0.00     0.080 A 
ATOM     10  C   LIG d   1      22.751  -0.036  24.412  0.00  0.00     0.054 A 
ATOM     11  C   LIG d   1      22.925   0.485  25.721  0.00  0.00     0.076 A 
ATOM     12  C   LIG d   1      22.200  -0.133  26.754  0.00  0.00     0.082 A 
ATOM     13  C   LIG d   1      21.352  -1.205  26.502  0.00  0.00     0.040 A 
ATOM     14  C   LIG d   1      21.204  -1.687  25.195  0.00  0.00     0.036 A 
BRANCH  11  15
ATOM     15  C   LIG d   1      23.846   1.655  26.016  0.00  0.00     0.212 C 
ATOM     16  O   LIG d   1      25.050   1.548  25.566  0.00  0.00    -0.644 OA
ATOM     17  O   LIG d   1      23.431   2.671  26.662  0.00  0.00    -0.644 OA
ENDBRANCH  11  15
BRANCH  12  18
ATOM     18  O   LIG d   1      22.293   0.294  28.062  0.00  0.00    -0.360 OA
ATOM     19  H   LIG d   1      22.926   1.059  28.007  0.00  0.00     0.217 HD
ENDBRANCH  12  18
ENDBRANCH   8   9
ENDBRANCH   7   8
ENDBRANCH   4   7
BRANCH   1  20
ATOM     20  S   LIG d   1      24.920   0.643  17.321  0.00  0.00     0.247 S 
ATOM     21  O   LIG d   1      24.655   2.060  17.500  0.00  0.00    -0.205 OA
ATOM     22  O   LIG d   1      26.259   0.208  16.969  0.00  0.00    -0.205 OA
BRANCH  20  23
ATOM     23  N   LIG d   1      23.845   0.140  16.098  0.00  0.00    -0.165 NA
ATOM     24  H   LIG d   1      23.530  -0.800  16.340  0.00  0.00     0.147 HD
BRANCH  23  25
ATOM     25  C   LIG d   1      24.411   0.041  14.808  0.00  0.00     0.116 C 
ATOM     26  N   LIG d   1      24.397  -1.225  14.367  0.00  0.00    -0.248 NA
ATOM     27  C   LIG d   1      25.032  -1.453  13.198  0.00  0.00     0.118 C 
ATOM     28  C   LIG d   1      25.569  -0.449  12.406  0.00  0.00     0.019 C 
ATOM     29  C   LIG d   1      25.470   0.866  12.849  0.00  0.00     0.005 C 
ATOM     30  C   LIG d   1      24.880   1.121  14.082  0.00  0.00     0.045 C 
ENDBRANCH  23  25
ENDBRANCH  20  23
ENDBRANCH   1  20
TORSDOF 8
ENDMDL
MODEL 2
REMARK minimizedAffinity -6.6340909REMARK CNNscore 0.686032712REMARK CNNaffinity 5.23113251REMARK  8 active torsions:
REMARK  status: ('A' for Active; 'I' for Inactive)
REMARK    1  A    between atoms: S_1  and  N_7 
REMARK    2  A    between atoms: S_1  and  C_11 
REMARK    3  A    between atoms: O_4  and  C_22 
REMARK    4  A    between atoms: N_7  and  C_17 
REMARK    5  A    between atoms: N_8  and  N_10 
REMARK    6  A    between atoms: N_8  and  C_14 
REMARK    7  A    between atoms: N_10  and  C_18 
REMARK    8  A    between atoms: C_20  and  C_28 
ROOT
ATOM      1  C   LIG d   1      24.108  -2.019  18.052  0.00  0.00     0.075 A 
ATOM      2  C   LIG d   1      22.861  -1.550  18.459  0.00  0.00     0.027 A 
ATOM      3  C   LIG d   1      25.118  -2.254  18.984  0.00  0.00     0.027 A 
ATOM      4  C   LIG d   1      23.645  -1.478  20.779  0.00  0.00     0.079 A 
ATOM      5  C   LIG d   1      22.645  -1.279  19.813  0.00  0.00     0.035 A 
ATOM      6  C   LIG d   1      24.878  -1.973  20.330  0.00  0.00     0.035 A 
ENDROOT
BRANCH   4   7
ATOM      7  N   LIG d   1      23.516  -1.207  22.099  0.00  0.00    -0.150 NA
BRANCH   7   8
ATOM      8  N   LIG d   1      22.169  -1.445  22.672  0.00  0.00    -0.150 NA
BRANCH   8   9
ATOM      9  C   LIG d   1      22.028  -1.146  23.996  0.00  0.00     0.080 A 
ATOM     10  C   LIG d   1      22.602   0.050  24.510  0.00  0.00     0.054 A 
ATOM     11  C   LIG d   1      22.512   0.440  25.872  0.00  0.00     0.076 A 
ATOM     12  C   LIG d   1      21.822  -0.425  26.738  0.00  0.00     0.082 A 
ATOM     13  C   LIG d   1      21.254  -1.608  26.280  0.00  0.00     0.040 A 
ATOM     14  C   LIG d   1      21.360  -1.956  24.927  0.00  0.00     0.036 A 
BRANCH  11  15
ATOM     15  C   LIG d   1      23.125   1.727  26.392  0.00  0.00     0.212 C 
ATOM     16  O   LIG d   1      24.003   1.593  27.327  0.00  0.00    -0.644 OA
ATOM     17  O   LIG d   1      22.784   2.857  25.914  0.00  0.00    -0.644 OA
ENDBRANCH  11  15
BRANCH  12  18
ATOM     18  O   LIG d   1      21.673  -0.142  28.081  0.00  0.00    -0.360 OA
ATOM     19  H   LIG d   1      22.132   0.735  28.180  0.00  0.00     0.217 HD
ENDBRANCH  12  18
ENDBRANCH   8   9
ENDBRANCH   7   8
ENDBRANCH   4   7
BRANCH   1  20
ATOM     20  S   LIG d   1      24.431  -2.320  16.342  0.00  0.00     0.247 S 
ATOM     21  O   LIG d   1      25.832  -2.043  16.076  0.00  0.00    -0.205 OA
ATOM     22  O   LIG d   1      23.869  -3.596  15.941  0.00  0.00    -0.205 OA
BRANCH  20  23
ATOM     23  N   LIG d   1      23.574  -1.075  15.554  0.00  0.00    -0.165 NA
ATOM     24  H   LIG d   1      23.370  -1.401  14.609  0.00  0.00     0.147 HD
BRANCH  23  25
ATOM     25  C   LIG d   1      24.284   0.136  15.403  0.00  0.00     0.116 C 
ATOM     26  N   LIG d   1      24.855   0.217  14.193  0.00  0.00    -0.248 NA
ATOM     27  C   LIG d   1      25.666   1.278  13.989  0.00  0.00     0.118 C 
ATOM     28  C   LIG d   1      25.828   2.309  14.902  0.00  0.00     0.019 C 
ATOM     29  C   LIG d   1      25.135   2.239  16.106  0.00  0.00     0.005 C 
ATOM     30  C   LIG d   1      24.345   1.125  16.369  0.00  0.00     0.045 C 
ENDBRANCH  23  25
ENDBRANCH  20  23
ENDBRANCH   1  20
TORSDOF 8
ENDMDL
MODEL 3
REMARK minimizedAffinity -7.13798189REMARK CNNscore 0.577998877REMARK CNNaffinity 4.95042515REMARK  8 active torsions:
REMARK  status: ('A' for Active; 'I' for Inactive)
REMARK    1  A    between atoms: S_1  and  N_7 
REMARK    2  A    between atoms: S_1  and  C_11 
REMARK    3  A    between atoms: O_4  and  C_22 
REMARK    4  A    between atoms: N_7  and  C_17 
REMARK    5  A    between atoms: N_8  and  N_10 
REMARK    6  A    between atoms: N_8  and  C_14 
REMARK    7  A    between atoms: N_10  and  C_18 
REMARK    8  A    between atoms: C_20  and  C_28 
ROOT
ATOM      1  C   LIG d   1      23.780  -2.049  19.774  0.00  0.00     0.075 A 
ATOM      2  C   LIG d   1      24.591  -2.891  19.017  0.00  0.00     0.027 A 
ATOM      3  C   LIG d   1      22.891  -1.172  19.153  0.00  0.00     0.027 A 
ATOM      4  C   LIG d   1      23.671  -1.930  16.959  0.00  0.00     0.079 A 
ATOM      5  C   LIG d   1      24.533  -2.819  17.622  0.00  0.00     0.035 A 
ATOM      6  C   LIG d   1      22.854  -1.117  17.758  0.00  0.00     0.035 A 
ENDROOT
BRANCH   4   7
ATOM      7  N   LIG d   1      23.587  -1.784  15.616  0.00  0.00    -0.150 NA
BRANCH   7   8
ATOM      8  N   LIG d   1      24.845  -2.018  14.867  0.00  0.00    -0.150 NA
BRANCH   8   9
ATOM      9  C   LIG d   1      25.161  -1.076  13.933  0.00  0.00     0.080 A 
ATOM     10  C   LIG d   1      25.779  -1.474  12.715  0.00  0.00     0.054 A 
ATOM     11  C   LIG d   1      26.148  -0.566  11.689  0.00  0.00     0.076 A 
ATOM     12  C   LIG d   1      25.887   0.796  11.919  0.00  0.00     0.082 A 
ATOM     13  C   LIG d   1      25.293   1.230  13.099  0.00  0.00     0.040 A 
ATOM     14  C   LIG d   1      24.940   0.302  14.086  0.00  0.00     0.036 A 
BRANCH  11  15
ATOM     15  C   LIG d   1      26.796  -1.020  10.394  0.00  0.00     0.212 C 
ATOM     16  O   LIG d   1      26.229  -0.614   9.310  0.00  0.00    -0.644 OA
ATOM     17  O   LIG d   1      27.841  -1.749  10.403  0.00  0.00    -0.644 OA
ENDBRANCH  11  15
BRANCH  12  18
ATOM     18  O   LIG d   1      26.204   1.764  10.989  0.00  0.00    -0.360 OA
ATOM     19  H   LIG d   1      26.593   1.239  10.238  0.00  0.00     0.217 HD
ENDBRANCH  12  18
ENDBRANCH   8   9
ENDBRANCH   7   8
ENDBRANCH   4   7
BRANCH   1  20
ATOM     20  S   LIG d   1      23.868  -2.077  21.537  0.00  0.00     0.247 S 
ATOM     21  O   LIG d   1      24.160  -3.434  21.967  0.00  0.00    -0.205 OA
ATOM     22  O   LIG d   1      24.693  -0.985  22.018  0.00  0.00    -0.205 OA
BRANCH  20  23
ATOM     23  N   LIG d   1      22.257  -1.796  22.017  0.00  0.00    -0.165 NA
ATOM     24  H   LIG d   1      21.921  -0.989  21.489  0.00  0.00     0.147 HD
BRANCH  23  25
ATOM     25  C   LIG d   1      22.088  -1.466  23.380  0.00  0.00     0.116 C 
ATOM     26  N   LIG d   1      21.898  -2.564  24.126  0.00  0.00    -0.248 NA
ATOM     27  C   LIG d   1      21.597  -2.354  25.425  0.00  0.00     0.118 C 
ATOM     28  C   LIG d   1      21.598  -1.102  26.022  0.00  0.00     0.019 C 
ATOM     29  C   LIG d   1      21.904   0.004  25.235  0.00  0.00     0.005 C 
ATOM     30  C   LIG d   1      22.153  -0.178  23.879  0.00  0.00     0.045 C 
ENDBRANCH  23  25
ENDBRANCH  20  23
ENDBRANCH   1  20
TORSDOF 8
ENDMDL
MODEL 4
REMARK minimizedAffinity -6.1587472REMARK CNNscore 0.44772929REMARK CNNaffinity 4.69115973REMARK  8 active torsions:
REMARK  status: ('A' for Active; 'I' for Inactive)
REMARK    1  A    between atoms: S_1  and  N_7 
REMARK    2  A    between atoms: S_1  and  C_11 
REMARK    3  A    between atoms: O_4  and  C_22 
REMARK    4  A    between atoms: N_7  and  C_17 
REMARK    5  A    between atoms: N_8  and  N_10 
REMARK    6  A    between atoms: N_8  and  C_14 
REMARK    7  A    between atoms: N_10  and  C_18 
REMARK    8  A    between atoms: C_20  and  C_28 
ROOT
ATOM      1  C   LIG d   1      -0.109  -6.577  21.437  0.00  0.00     0.075 A 
ATOM      2  C   LIG d   1      -0.380  -6.962  20.126  0.00  0.00     0.027 A 
ATOM      3  C   LIG d   1      -0.884  -5.604  22.066  0.00  0.00     0.027 A 
ATOM      4  C   LIG d   1      -2.203  -5.329  20.022  0.00  0.00     0.079 A 
ATOM      5  C   LIG d   1      -1.417  -6.331  19.432  0.00  0.00     0.035 A 
ATOM      6  C   LIG d   1      -1.912  -4.987  21.351  0.00  0.00     0.035 A 
ENDROOT
BRANCH   4   7
ATOM      7  N   LIG d   1      -3.200  -4.655  19.401  0.00  0.00    -0.150 NA
BRANCH   7   8
ATOM      8  N   LIG d   1      -2.774  -3.756  18.300  0.00  0.00    -0.150 NA
BRANCH   8   9
ATOM      9  C   LIG d   1      -3.295  -4.038  17.072  0.00  0.00     0.080 A 
ATOM     10  C   LIG d   1      -3.324  -3.026  16.073  0.00  0.00     0.054 A 
ATOM     11  C   LIG d   1      -3.852  -3.225  14.770  0.00  0.00     0.076 A 
ATOM     12  C   LIG d   1      -4.376  -4.496  14.482  0.00  0.00     0.082 A 
ATOM     13  C   LIG d   1      -4.377  -5.511  15.432  0.00  0.00     0.040 A 
ATOM     14  C   LIG d   1      -3.844  -5.277  16.706  0.00  0.00     0.036 A 
BRANCH  11  15
ATOM     15  C   LIG d   1      -3.860  -2.130  13.719  0.00  0.00     0.212 C 
ATOM     16  O   LIG d   1      -4.579  -1.095  13.992  0.00  0.00    -0.644 OA
ATOM     17  O   LIG d   1      -3.183  -2.245  12.645  0.00  0.00    -0.644 OA
ENDBRANCH  11  15
BRANCH  12  18
ATOM     18  O   LIG d   1      -4.913  -4.799  13.248  0.00  0.00    -0.360 OA
ATOM     19  H   LIG d   1      -4.796  -3.953  12.736  0.00  0.00     0.217 HD
ENDBRANCH  12  18
ENDBRANCH   8   9
ENDBRANCH   7   8
ENDBRANCH   4   7
BRANCH   1  20
ATOM     20  S   LIG d   1       1.228  -7.316  22.322  0.00  0.00     0.247 S 
ATOM     21  O   LIG d   1       1.391  -8.685  21.862  0.00  0.00    -0.205 OA
ATOM     22  O   LIG d   1       2.376  -6.428  22.334  0.00  0.00    -0.205 OA
BRANCH  20  23
ATOM     23  N   LIG d   1       0.624  -7.448  23.910  0.00  0.00    -0.165 NA
ATOM     24  H   LIG d   1      -0.174  -6.817  23.983  0.00  0.00     0.147 HD
BRANCH  23  25
ATOM     25  C   LIG d   1       1.524  -7.057  24.926  0.00  0.00     0.116 C 
ATOM     26  N   LIG d   1       1.192  -5.861  25.435  0.00  0.00    -0.248 NA
ATOM     27  C   LIG d   1       2.060  -5.334  26.324  0.00  0.00     0.118 C 
ATOM     28  C   LIG d   1       3.174  -6.007  26.804  0.00  0.00     0.019 C 
ATOM     29  C   LIG d   1       3.426  -7.290  26.328  0.00  0.00     0.005 C 
ATOM     30  C   LIG d   1       2.584  -7.831  25.363  0.00  0.00     0.045 C 
ENDBRANCH  23  25
ENDBRANCH  20  23
ENDBRANCH   1  20
TORSDOF 8
ENDMDL
MODEL 5
REMARK minimizedAffinity -6.18906498REMARK CNNscore 0.402583718REMARK CNNaffinity 5.06163311REMARK  8 active torsions:
REMARK  status: ('A' for Active; 'I' for Inactive)
REMARK    1  A    between atoms: S_1  and  N_7 
REMARK    2  A    between atoms: S_1  and  C_11 
REMARK    3  A    between atoms: O_4  and  C_22 
REMARK    4  A    between atoms: N_7  and  C_17 
REMARK    5  A    between atoms: N_8  and  N_10 
REMARK    6  A    between atoms: N_8  and  C_14 
REMARK    7  A    between atoms: N_10  and  C_18 
REMARK    8  A    between atoms: C_20  and  C_28 
ROOT
ATOM      1  C   LIG d   1       9.234   3.079  24.402  0.00  0.00     0.075 A 
ATOM      2  C   LIG d   1       8.217   2.187  24.734  0.00  0.00     0.027 A 
ATOM      3  C   LIG d   1      10.464   2.614  23.939  0.00  0.00     0.027 A 
ATOM      4  C   LIG d   1       9.691   0.305  24.200  0.00  0.00     0.079 A 
ATOM      5  C   LIG d   1       8.457   0.814  24.636  0.00  0.00     0.035 A 
ATOM      6  C   LIG d   1      10.680   1.237  23.853  0.00  0.00     0.035 A 
ENDROOT
BRANCH   4   7
ATOM      7  N   LIG d   1      10.004  -1.009  24.112  0.00  0.00    -0.150 NA
BRANCH   7   8
ATOM      8  N   LIG d   1       8.877  -1.913  23.774  0.00  0.00    -0.150 NA
BRANCH   8   9
ATOM      9  C   LIG d   1       8.688  -2.964  24.623  0.00  0.00     0.080 A 
ATOM     10  C   LIG d   1       7.398  -3.197  25.176  0.00  0.00     0.054 A 
ATOM     11  C   LIG d   1       7.108  -4.260  26.070  0.00  0.00     0.076 A 
ATOM     12  C   LIG d   1       8.174  -5.107  26.420  0.00  0.00     0.082 A 
ATOM     13  C   LIG d   1       9.452  -4.910  25.910  0.00  0.00     0.040 A 
ATOM     14  C   LIG d   1       9.697  -3.852  25.026  0.00  0.00     0.036 A 
BRANCH  11  15
ATOM     15  C   LIG d   1       5.720  -4.492  26.637  0.00  0.00     0.212 C 
ATOM     16  O   LIG d   1       5.211  -5.656  26.417  0.00  0.00    -0.644 OA
ATOM     17  O   LIG d   1       5.117  -3.580  27.293  0.00  0.00    -0.644 OA
ENDBRANCH  11  15
BRANCH  12  18
ATOM     18  O   LIG d   1       8.003  -6.172  27.280  0.00  0.00    -0.360 OA
ATOM     19  H   LIG d   1       7.034  -6.132  27.502  0.00  0.00     0.217 HD
ENDBRANCH  12  18
ENDBRANCH   8   9
ENDBRANCH   7   8
ENDBRANCH   4   7
BRANCH   1  20
ATOM     20  S   LIG d   1       8.980   4.819  24.567  0.00  0.00     0.247 S 
ATOM     21  O   LIG d   1       7.746   5.043  25.299  0.00  0.00    -0.205 OA
ATOM     22  O   LIG d   1      10.200   5.466  25.013  0.00  0.00    -0.205 OA
BRANCH  20  23
ATOM     23  N   LIG d   1       8.649   5.321  22.972  0.00  0.00    -0.165 NA
ATOM     24  H   LIG d   1       9.543   5.551  22.536  0.00  0.00     0.147 HD
BRANCH  23  25
ATOM     25  C   LIG d   1       7.855   6.484  22.865  0.00  0.00     0.116 C 
ATOM     26  N   LIG d   1       8.065   7.314  23.898  0.00  0.00    -0.248 NA
ATOM     27  C   LIG d   1       7.261   8.396  23.961  0.00  0.00     0.118 C 
ATOM     28  C   LIG d   1       6.347   8.735  22.975  0.00  0.00     0.019 C 
ATOM     29  C   LIG d   1       6.233   7.903  21.866  0.00  0.00     0.005 C 
ATOM     30  C   LIG d   1       7.002   6.746  21.807  0.00  0.00     0.045 C 
ENDBRANCH  23  25
ENDBRANCH  20  23
ENDBRANCH   1  20
TORSDOF 8
ENDMDL
MODEL 6
REMARK minimizedAffinity -5.35469675REMARK CNNscore 0.37808156REMARK CNNaffinity 4.90549088REMARK  8 active torsions:
REMARK  status: ('A' for Active; 'I' for Inactive)
REMARK    1  A    between atoms: S_1  and  N_7 
REMARK    2  A    between atoms: S_1  and  C_11 
REMARK    3  A    between atoms: O_4  and  C_22 
REMARK    4  A    between atoms: N_7  and  C_17 
REMARK    5  A    between atoms: N_8  and  N_10 
REMARK    6  A    between atoms: N_8  and  C_14 
REMARK    7  A    between atoms: N_10  and  C_18 
REMARK    8  A    between atoms: C_20  and  C_28 
ROOT
ATOM      1  C   LIG d   1      -2.955   1.604   6.533  0.00  0.00     0.075 A 
ATOM      2  C   LIG d   1      -4.016   2.017   5.730  0.00  0.00     0.027 A 
ATOM      3  C   LIG d   1      -2.017   0.690   6.057  0.00  0.00     0.027 A 
ATOM      4  C   LIG d   1      -3.244   0.528   3.944  0.00  0.00     0.079 A 
ATOM      5  C   LIG d   1      -4.152   1.471   4.450  0.00  0.00     0.035 A 
ATOM      6  C   LIG d   1      -2.177   0.157   4.776  0.00  0.00     0.035 A 
ENDROOT
BRANCH   4   7
ATOM      7  N   LIG d   1      -3.333  -0.065   2.730  0.00  0.00    -0.150 NA
BRANCH   7   8
ATOM      8  N   LIG d   1      -3.169   0.838   1.565  0.00  0.00    -0.150 NA
BRANCH   8   9
ATOM      9  C   LIG d   1      -1.910   0.906   1.042  0.00  0.00     0.080 A 
ATOM     10  C   LIG d   1      -1.105   2.050   1.297  0.00  0.00     0.054 A 
ATOM     11  C   LIG d   1       0.211   2.212   0.792  0.00  0.00     0.076 A 
ATOM     12  C   LIG d   1       0.718   1.174  -0.009  0.00  0.00     0.082 A 
ATOM     13  C   LIG d   1      -0.038   0.042  -0.292  0.00  0.00     0.040 A 
ATOM     14  C   LIG d   1      -1.333  -0.082   0.229  0.00  0.00     0.036 A 
BRANCH  11  15
ATOM     15  C   LIG d   1       1.053   3.439   1.089  0.00  0.00     0.212 C 
ATOM     16  O   LIG d   1       0.466   4.576   0.922  0.00  0.00    -0.644 OA
ATOM     17  O   LIG d   1       2.259   3.329   1.485  0.00  0.00    -0.644 OA
ENDBRANCH  11  15
BRANCH  12  18
ATOM     18  O   LIG d   1       1.985   1.227  -0.551  0.00  0.00    -0.360 OA
ATOM     19  H   LIG d   1       2.340   2.094  -0.215  0.00  0.00     0.217 HD
ENDBRANCH  12  18
ENDBRANCH   8   9
ENDBRANCH   7   8
ENDBRANCH   4   7
BRANCH   1  20
ATOM     20  S   LIG d   1      -2.785   2.234   8.174  0.00  0.00     0.247 S 
ATOM     21  O   LIG d   1      -1.400   2.085   8.589  0.00  0.00    -0.205 OA
ATOM     22  O   LIG d   1      -3.426   3.531   8.285  0.00  0.00    -0.205 OA
BRANCH  20  23
ATOM     23  N   LIG d   1      -3.655   1.113   9.118  0.00  0.00    -0.165 NA
ATOM     24  H   LIG d   1      -4.379   1.635   9.615  0.00  0.00     0.147 HD
BRANCH  23  25
ATOM     25  C   LIG d   1      -2.898   0.455  10.113  0.00  0.00     0.116 C 
ATOM     26  N   LIG d   1      -2.162  -0.535   9.588  0.00  0.00    -0.248 NA
ATOM     27  C   LIG d   1      -1.499  -1.313  10.470  0.00  0.00     0.118 C 
ATOM     28  C   LIG d   1      -1.453  -1.063  11.834  0.00  0.00     0.019 C 
ATOM     29  C   LIG d   1      -2.147   0.038  12.327  0.00  0.00     0.005 C 
ATOM     30  C   LIG d   1      -2.892   0.817  11.448  0.00  0.00     0.045 C 
ENDBRANCH  23  25
ENDBRANCH  20  23
ENDBRANCH   1  20
TORSDOF 8
ENDMDL
MODEL 7
REMARK minimizedAffinity -5.91784096REMARK CNNscore 0.350901902REMARK CNNaffinity 4.57442284REMARK  8 active torsions:
REMARK  status: ('A' for Active; 'I' for Inactive)
REMARK    1  A    between atoms: S_1  and  N_7 
REMARK    2  A    between atoms: S_1  and  C_11 
REMARK    3  A    between atoms: O_4  and  C_22 
REMARK    4  A    between atoms: N_7  and  C_17 
REMARK    5  A    between atoms: N_8  and  N_10 
REMARK    6  A    between atoms: N_8  and  C_14 
REMARK    7  A    between atoms: N_10  and  C_18 
REMARK    8  A    between atoms: C_20  and  C_28 
ROOT
ATOM      1  C   LIG d   1      -0.356  -6.558  21.423  0.00  0.00     0.075 A 
ATOM      2  C   LIG d   1      -0.583  -6.942  20.103  0.00  0.00     0.027 A 
ATOM      3  C   LIG d   1      -1.110  -5.542  22.007  0.00  0.00     0.027 A 
ATOM      4  C   LIG d   1      -2.314  -5.221  19.899  0.00  0.00     0.079 A 
ATOM      5  C   LIG d   1      -1.553  -6.267  19.355  0.00  0.00     0.035 A 
ATOM      6  C   LIG d   1      -2.071  -4.881  21.238  0.00  0.00     0.035 A 
ENDROOT
BRANCH   4   7
ATOM      7  N   LIG d   1      -3.244  -4.503  19.226  0.00  0.00    -0.150 NA
BRANCH   7   8
ATOM      8  N   LIG d   1      -2.739  -3.737  18.060  0.00  0.00    -0.150 NA
BRANCH   8   9
ATOM      9  C   LIG d   1      -3.306  -4.046  16.859  0.00  0.00     0.080 A 
ATOM     10  C   LIG d   1      -3.392  -3.051  15.846  0.00  0.00     0.054 A 
ATOM     11  C   LIG d   1      -3.970  -3.279  14.570  0.00  0.00     0.076 A 
ATOM     12  C   LIG d   1      -4.485  -4.563  14.323  0.00  0.00     0.082 A 
ATOM     13  C   LIG d   1      -4.430  -5.562  15.288  0.00  0.00     0.040 A 
ATOM     14  C   LIG d   1      -3.848  -5.300  16.534  0.00  0.00     0.036 A 
BRANCH  11  15
ATOM     15  C   LIG d   1      -4.039  -2.201  13.503  0.00  0.00     0.212 C 
ATOM     16  O   LIG d   1      -5.065  -1.422  13.559  0.00  0.00    -0.644 OA
ATOM     17  O   LIG d   1      -3.124  -2.087  12.624  0.00  0.00    -0.644 OA
ENDBRANCH  11  15
BRANCH  12  18
ATOM     18  O   LIG d   1      -5.067  -4.893  13.117  0.00  0.00    -0.360 OA
ATOM     19  H   LIG d   1      -4.985  -4.054  12.588  0.00  0.00     0.217 HD
ENDBRANCH  12  18
ENDBRANCH   8   9
ENDBRANCH   7   8
ENDBRANCH   4   7
BRANCH   1  20
ATOM     20  S   LIG d   1       0.898  -7.355  22.377  0.00  0.00     0.247 S 
ATOM     21  O   LIG d   1       1.150  -8.669  21.812  0.00  0.00    -0.205 OA
ATOM     22  O   LIG d   1       2.011  -6.451  22.601  0.00  0.00    -0.205 OA
BRANCH  20  23
ATOM     23  N   LIG d   1       0.129  -7.652  23.869  0.00  0.00    -0.165 NA
ATOM     24  H   LIG d   1       0.792  -7.406  24.605  0.00  0.00     0.147 HD
BRANCH  23  25
ATOM     25  C   LIG d   1      -0.226  -8.999  24.100  0.00  0.00     0.116 C 
ATOM     26  N   LIG d   1       0.647  -9.597  24.924  0.00  0.00    -0.248 NA
ATOM     27  C   LIG d   1       0.474 -10.923  25.110  0.00  0.00     0.118 C 
ATOM     28  C   LIG d   1      -0.600 -11.638  24.601  0.00  0.00     0.019 C 
ATOM     29  C   LIG d   1      -1.543 -10.957  23.836  0.00  0.00     0.005 C 
ATOM     30  C   LIG d   1      -1.353  -9.605  23.575  0.00  0.00     0.045 C 
ENDBRANCH  23  25
ENDBRANCH  20  23
ENDBRANCH   1  20
TORSDOF 8
ENDMDL
MODEL 8
REMARK minimizedAffinity -7.08835173REMARK CNNscore 0.315669388REMARK CNNaffinity 4.9941721REMARK  8 active torsions:
REMARK  status: ('A' for Active; 'I' for Inactive)
REMARK    1  A    between atoms: S_1  and  N_7 
REMARK    2  A    between atoms: S_1  and  C_11 
REMARK    3  A    between atoms: O_4  and  C_22 
REMARK    4  A    between atoms: N_7  and  C_17 
REMARK    5  A    between atoms: N_8  and  N_10 
REMARK    6  A    between atoms: N_8  and  C_14 
REMARK    7  A    between atoms: N_10  and  C_18 
REMARK    8  A    between atoms: C_20  and  C_28 
ROOT
ATOM      1  C   LIG d   1      14.706  -5.176  -7.700  0.00  0.00     0.075 A 
ATOM      2  C   LIG d   1      16.019  -5.634  -7.788  0.00  0.00     0.027 A 
ATOM      3  C   LIG d   1      13.992  -5.291  -6.508  0.00  0.00     0.027 A 
ATOM      4  C   LIG d   1      15.906  -6.408  -5.466  0.00  0.00     0.079 A 
ATOM      5  C   LIG d   1      16.601  -6.249  -6.675  0.00  0.00     0.035 A 
ATOM      6  C   LIG d   1      14.595  -5.912  -5.412  0.00  0.00     0.035 A 
ENDROOT
BRANCH   4   7
ATOM      7  N   LIG d   1      16.395  -7.021  -4.362  0.00  0.00    -0.150 NA
BRANCH   7   8
ATOM      8  N   LIG d   1      17.599  -6.395  -3.764  0.00  0.00    -0.150 NA
BRANCH   8   9
ATOM      9  C   LIG d   1      17.440  -5.116  -3.316  0.00  0.00     0.080 A 
ATOM     10  C   LIG d   1      18.041  -4.043  -4.030  0.00  0.00     0.054 A 
ATOM     11  C   LIG d   1      17.935  -2.683  -3.637  0.00  0.00     0.076 A 
ATOM     12  C   LIG d   1      17.199  -2.412  -2.470  0.00  0.00     0.082 A 
ATOM     13  C   LIG d   1      16.603  -3.432  -1.737  0.00  0.00     0.040 A 
ATOM     14  C   LIG d   1      16.727  -4.762  -2.160  0.00  0.00     0.036 A 
BRANCH  11  15
ATOM     15  C   LIG d   1      18.577  -1.556  -4.423  0.00  0.00     0.212 C 
ATOM     16  O   LIG d   1      18.520  -1.663  -5.707  0.00  0.00    -0.644 OA
ATOM     17  O   LIG d   1      19.126  -0.570  -3.831  0.00  0.00    -0.644 OA
ENDBRANCH  11  15
BRANCH  12  18
ATOM     18  O   LIG d   1      17.032  -1.127  -1.999  0.00  0.00    -0.360 OA
ATOM     19  H   LIG d   1      17.516  -0.574  -2.669  0.00  0.00     0.217 HD
ENDBRANCH  12  18
ENDBRANCH   8   9
ENDBRANCH   7   8
ENDBRANCH   4   7
BRANCH   1  20
ATOM     20  S   LIG d   1      13.924  -4.443  -9.102  0.00  0.00     0.247 S 
ATOM     21  O   LIG d   1      12.513  -4.791  -9.084  0.00  0.00    -0.205 OA
ATOM     22  O   LIG d   1      14.312  -3.051  -9.225  0.00  0.00    -0.205 OA
BRANCH  20  23
ATOM     23  N   LIG d   1      14.578  -5.309 -10.416  0.00  0.00    -0.165 NA
ATOM     24  H   LIG d   1      15.554  -5.023 -10.510  0.00  0.00     0.147 HD
BRANCH  23  25
ATOM     25  C   LIG d   1      13.974  -5.048 -11.665  0.00  0.00     0.116 C 
ATOM     26  N   LIG d   1      14.488  -3.947 -12.233  0.00  0.00    -0.248 NA
ATOM     27  C   LIG d   1      13.892  -3.533 -13.371  0.00  0.00     0.118 C 
ATOM     28  C   LIG d   1      12.888  -4.240 -14.015  0.00  0.00     0.019 C 
ATOM     29  C   LIG d   1      12.453  -5.434 -13.448  0.00  0.00     0.005 C 
ATOM     30  C   LIG d   1      13.005  -5.850 -12.241  0.00  0.00     0.045 C 
ENDBRANCH  23  25
ENDBRANCH  20  23
ENDBRANCH   1  20
TORSDOF 8
ENDMDL
MODEL 9
REMARK minimizedAffinity -6.86835003REMARK CNNscore 0.305559933REMARK CNNaffinity 4.75157261REMARK  8 active torsions:
REMARK  status: ('A' for Active; 'I' for Inactive)
REMARK    1  A    between atoms: S_1  and  N_7 
REMARK    2  A    between atoms: S_1  and  C_11 
REMARK    3  A    between atoms: O_4  and  C_22 
REMARK    4  A    between atoms: N_7  and  C_17 
REMARK    5  A    between atoms: N_8  and  N_10 
REMARK    6  A    between atoms: N_8  and  C_14 
REMARK    7  A    between atoms: N_10  and  C_18 
REMARK    8  A    between atoms: C_20  and  C_28 
ROOT
ATOM      1  C   LIG d   1       3.736  24.786  -1.092  0.00  0.00     0.075 A 
ATOM      2  C   LIG d   1       4.360  23.661  -1.626  0.00  0.00     0.027 A 
ATOM      3  C   LIG d   1       4.479  25.765  -0.433  0.00  0.00     0.027 A 
ATOM      4  C   LIG d   1       6.518  24.455  -0.779  0.00  0.00     0.079 A 
ATOM      5  C   LIG d   1       5.740  23.505  -1.460  0.00  0.00     0.035 A 
ATOM      6  C   LIG d   1       5.854  25.584  -0.277  0.00  0.00     0.035 A 
ENDROOT
BRANCH   4   7
ATOM      7  N   LIG d   1       7.849  24.352  -0.553  0.00  0.00    -0.150 NA
BRANCH   7   8
ATOM      8  N   LIG d   1       8.502  23.146  -1.117  0.00  0.00    -0.150 NA
BRANCH   8   9
ATOM      9  C   LIG d   1       9.382  22.510  -0.291  0.00  0.00     0.080 A 
ATOM     10  C   LIG d   1       9.290  21.101  -0.120  0.00  0.00     0.054 A 
ATOM     11  C   LIG d   1      10.156  20.355   0.722  0.00  0.00     0.076 A 
ATOM     12  C   LIG d   1      11.142  21.073   1.419  0.00  0.00     0.082 A 
ATOM     13  C   LIG d   1      11.262  22.452   1.287  0.00  0.00     0.040 A 
ATOM     14  C   LIG d   1      10.390  23.153   0.444  0.00  0.00     0.036 A 
BRANCH  11  15
ATOM     15  C   LIG d   1      10.042  18.850   0.878  0.00  0.00     0.212 C 
ATOM     16  O   LIG d   1      10.151  18.400   2.082  0.00  0.00    -0.644 OA
ATOM     17  O   LIG d   1       9.843  18.097  -0.131  0.00  0.00    -0.644 OA
ENDBRANCH  11  15
BRANCH  12  18
ATOM     18  O   LIG d   1      12.037  20.448   2.262  0.00  0.00    -0.360 OA
ATOM     19  H   LIG d   1      11.783  19.489   2.192  0.00  0.00     0.217 HD
ENDBRANCH  12  18
ENDBRANCH   8   9
ENDBRANCH   7   8
ENDBRANCH   4   7
BRANCH   1  20
ATOM     20  S   LIG d   1       1.988  24.987  -1.238  0.00  0.00     0.247 S 
ATOM     21  O   LIG d   1       1.485  25.598  -0.020  0.00  0.00    -0.205 OA
ATOM     22  O   LIG d   1       1.655  25.578  -2.521  0.00  0.00    -0.205 OA
BRANCH  20  23
ATOM     23  N   LIG d   1       1.403  23.387  -1.208  0.00  0.00    -0.165 NA
ATOM     24  H   LIG d   1       1.373  23.058  -2.174  0.00  0.00     0.147 HD
BRANCH  23  25
ATOM     25  C   LIG d   1       0.091  23.239  -0.705  0.00  0.00     0.116 C 
ATOM     26  N   LIG d   1       0.097  22.659   0.504  0.00  0.00    -0.248 NA
ATOM     27  C   LIG d   1      -1.113  22.352   1.020  0.00  0.00     0.118 C 
ATOM     28  C   LIG d   1      -2.315  22.711   0.428  0.00  0.00     0.019 C 
ATOM     29  C   LIG d   1      -2.276  23.406  -0.777  0.00  0.00     0.005 C 
ATOM     30  C   LIG d   1      -1.044  23.676  -1.363  0.00  0.00     0.045 C 
ENDBRANCH  23  25
ENDBRANCH  20  23
ENDBRANCH   1  20
TORSDOF 8
ENDMDL
