MODEL 1
REMARK minimizedAffinity -4.51643848REMARK CNNscore 0.788191795REMARK CNNaffinity 3.89510345REMARK  6 active torsions:
REMARK  status: ('A' for Active; 'I' for Inactive)
REMARK    1  A    between atoms: S_1  and  C_8 
REMARK    2  A    between atoms: S_1  and  C_10 
REMARK    3  A    between atoms: N_6  and  C_7 
REMARK    4  A    between atoms: C_7  and  C_9 
REMARK    5  A    between atoms: C_7  and  C_8 
REMARK    6  A    between atoms: C_10  and  C_11 
ROOT
ATOM      1  C   UNK d   1      13.655  -0.480  -4.886  0.00  0.00     0.292 C 
ENDROOT
BRANCH   1   2
ATOM      2  N   UNK d   1      12.272  -0.052  -4.469  0.00  0.00    -0.065 N 
ATOM      3  H   UNK d   1      11.617  -0.806  -4.289  0.00  0.00     0.275 HD
ATOM      4  H   UNK d   1      11.808   0.573  -5.179  0.00  0.00     0.275 HD
ATOM      5  H   UNK d   1      12.426   0.536  -3.628  0.00  0.00     0.275 HD
ENDBRANCH   1   2
BRANCH   1   6
ATOM      6  C   UNK d   1      14.725   0.209  -3.991  0.00  0.00     0.205 C 
ATOM      7  O   UNK d   1      15.413  -0.654  -3.353  0.00  0.00    -0.646 OA
ATOM      8  O   UNK d   1      14.807   1.460  -4.034  0.00  0.00    -0.646 OA
ENDBRANCH   1   6
BRANCH   1   9
ATOM      9  C   UNK d   1      13.919  -0.158  -6.355  0.00  0.00     0.118 C 
BRANCH   9  10
ATOM     10  S   UNK d   1      14.471  -1.638  -7.308  0.00  0.00    -0.156 SA
BRANCH  10  11
ATOM     11  C   UNK d   1      14.430  -2.916  -5.990  0.00  0.00     0.186 C 
BRANCH  11  12
ATOM     12  C   UNK d   1      13.363  -3.941  -6.387  0.00  0.00     0.182 C 
ATOM     13  O   UNK d   1      12.305  -3.454  -6.902  0.00  0.00    -0.647 OA
ATOM     14  O   UNK d   1      13.625  -5.148  -6.148  0.00  0.00    -0.647 OA
ENDBRANCH  11  12
ENDBRANCH  10  11
ENDBRANCH   9  10
ENDBRANCH   1   9
TORSDOF 6
ENDMDL
MODEL 2
REMARK minimizedAffinity -4.66380596REMARK CNNscore 0.784005046REMARK CNNaffinity 3.6921916REMARK  6 active torsions:
REMARK  status: ('A' for Active; 'I' for Inactive)
REMARK    1  A    between atoms: S_1  and  C_8 
REMARK    2  A    between atoms: S_1  and  C_10 
REMARK    3  A    between atoms: N_6  and  C_7 
REMARK    4  A    between atoms: C_7  and  C_9 
REMARK    5  A    between atoms: C_7  and  C_8 
REMARK    6  A    between atoms: C_10  and  C_11 
ROOT
ATOM      1  C   UNK d   1      13.742  -0.428  -4.773  0.00  0.00     0.292 C 
ENDROOT
BRANCH   1   2
ATOM      2  N   UNK d   1      12.313  -0.071  -4.460  0.00  0.00    -0.065 N 
ATOM      3  H   UNK d   1      11.942  -0.468  -3.603  0.00  0.00     0.275 HD
ATOM      4  H   UNK d   1      11.646  -0.355  -5.224  0.00  0.00     0.275 HD
ATOM      5  H   UNK d   1      12.303   0.966  -4.443  0.00  0.00     0.275 HD
ENDBRANCH   1   2
BRANCH   1   6
ATOM      6  C   UNK d   1      14.569   0.859  -5.056  0.00  0.00     0.205 C 
ATOM      7  O   UNK d   1      15.097   1.309  -3.986  0.00  0.00    -0.646 OA
ATOM      8  O   UNK d   1      14.649   1.255  -6.243  0.00  0.00    -0.646 OA
ENDBRANCH   1   6
BRANCH   1   9
ATOM      9  C   UNK d   1      13.831  -1.377  -5.967  0.00  0.00     0.118 C 
BRANCH   9  10
ATOM     10  S   UNK d   1      14.550  -3.012  -5.510  0.00  0.00    -0.156 SA
BRANCH  10  11
ATOM     11  C   UNK d   1      16.195  -2.489  -4.883  0.00  0.00     0.186 C 
BRANCH  11  12
ATOM     12  C   UNK d   1      16.221  -2.788  -3.380  0.00  0.00     0.182 C 
ATOM     13  O   UNK d   1      16.413  -4.009  -3.071  0.00  0.00    -0.647 OA
ATOM     14  O   UNK d   1      16.030  -1.813  -2.608  0.00  0.00    -0.647 OA
ENDBRANCH  11  12
ENDBRANCH  10  11
ENDBRANCH   9  10
ENDBRANCH   1   9
TORSDOF 6
ENDMDL
MODEL 3
REMARK minimizedAffinity -4.59941101REMARK CNNscore 0.765571892REMARK CNNaffinity 3.63678026REMARK  6 active torsions:
REMARK  status: ('A' for Active; 'I' for Inactive)
REMARK    1  A    between atoms: S_1  and  C_8 
REMARK    2  A    between atoms: S_1  and  C_10 
REMARK    3  A    between atoms: N_6  and  C_7 
REMARK    4  A    between atoms: C_7  and  C_9 
REMARK    5  A    between atoms: C_7  and  C_8 
REMARK    6  A    between atoms: C_10  and  C_11 
ROOT
ATOM      1  C   UNK d   1      13.752  -0.460  -4.853  0.00  0.00     0.292 C 
ENDROOT
BRANCH   1   2
ATOM      2  N   UNK d   1      12.339  -0.119  -4.455  0.00  0.00    -0.065 N 
ATOM      3  H   UNK d   1      11.993  -0.593  -3.628  0.00  0.00     0.275 HD
ATOM      4  H   UNK d   1      11.642  -0.319  -5.219  0.00  0.00     0.275 HD
ATOM      5  H   UNK d   1      12.346   0.911  -4.337  0.00  0.00     0.275 HD
ENDBRANCH   1   2
BRANCH   1   6
ATOM      6  C   UNK d   1      14.588   0.839  -5.039  0.00  0.00     0.205 C 
ATOM      7  O   UNK d   1      14.550   1.239  -6.249  0.00  0.00    -0.646 OA
ATOM      8  O   UNK d   1      15.135   1.333  -4.024  0.00  0.00    -0.646 OA
ENDBRANCH   1   6
BRANCH   1   9
ATOM      9  C   UNK d   1      13.785  -1.288  -6.136  0.00  0.00     0.118 C 
BRANCH   9  10
ATOM     10  S   UNK d   1      14.366  -3.014  -5.841  0.00  0.00    -0.156 SA
BRANCH  10  11
ATOM     11  C   UNK d   1      12.853  -3.955  -6.284  0.00  0.00     0.186 C 
BRANCH  11  12
ATOM     12  C   UNK d   1      12.803  -4.034  -7.813  0.00  0.00     0.182 C 
ATOM     13  O   UNK d   1      11.636  -4.033  -8.322  0.00  0.00    -0.647 OA
ATOM     14  O   UNK d   1      13.909  -4.116  -8.409  0.00  0.00    -0.647 OA
ENDBRANCH  11  12
ENDBRANCH  10  11
ENDBRANCH   9  10
ENDBRANCH   1   9
TORSDOF 6
ENDMDL
MODEL 4
REMARK minimizedAffinity -2.92245698REMARK CNNscore 0.656878412REMARK CNNaffinity 2.80548143REMARK  6 active torsions:
REMARK  status: ('A' for Active; 'I' for Inactive)
REMARK    1  A    between atoms: S_1  and  C_8 
REMARK    2  A    between atoms: S_1  and  C_10 
REMARK    3  A    between atoms: N_6  and  C_7 
REMARK    4  A    between atoms: C_7  and  C_9 
REMARK    5  A    between atoms: C_7  and  C_8 
REMARK    6  A    between atoms: C_10  and  C_11 
ROOT
ATOM      1  C   UNK d   1      16.727 -21.117  32.856  0.00  0.00     0.292 C 
ENDROOT
BRANCH   1   2
ATOM      2  N   UNK d   1      16.628 -20.799  31.387  0.00  0.00    -0.065 N 
ATOM      3  H   UNK d   1      17.166 -19.996  31.078  0.00  0.00     0.275 HD
ATOM      4  H   UNK d   1      15.638 -20.623  31.075  0.00  0.00     0.275 HD
ATOM      5  H   UNK d   1      16.927 -21.671  30.913  0.00  0.00     0.275 HD
ENDBRANCH   1   2
BRANCH   1   6
ATOM      6  C   UNK d   1      17.106 -22.612  33.059  0.00  0.00     0.205 C 
ATOM      7  O   UNK d   1      16.878 -23.291  32.004  0.00  0.00    -0.646 OA
ATOM      8  O   UNK d   1      17.602 -22.947  34.162  0.00  0.00    -0.646 OA
ENDBRANCH   1   6
BRANCH   1   9
ATOM      9  C   UNK d   1      15.420 -20.808  33.583  0.00  0.00     0.118 C 
BRANCH   9  10
ATOM     10  S   UNK d   1      15.088 -18.996  33.686  0.00  0.00    -0.156 SA
BRANCH  10  11
ATOM     11  C   UNK d   1      13.497 -18.897  32.773  0.00  0.00     0.186 C 
BRANCH  11  12
ATOM     12  C   UNK d   1      13.565 -17.651  31.885  0.00  0.00     0.182 C 
ATOM     13  O   UNK d   1      14.510 -16.840  32.153  0.00  0.00    -0.647 OA
ATOM     14  O   UNK d   1      12.674 -17.540  31.002  0.00  0.00    -0.647 OA
ENDBRANCH  11  12
ENDBRANCH  10  11
ENDBRANCH   9  10
ENDBRANCH   1   9
TORSDOF 6
ENDMDL
MODEL 5
REMARK minimizedAffinity -2.86642122REMARK CNNscore 0.612176478REMARK CNNaffinity 3.00247502REMARK  6 active torsions:
REMARK  status: ('A' for Active; 'I' for Inactive)
REMARK    1  A    between atoms: S_1  and  C_8 
REMARK    2  A    between atoms: S_1  and  C_10 
REMARK    3  A    between atoms: N_6  and  C_7 
REMARK    4  A    between atoms: C_7  and  C_9 
REMARK    5  A    between atoms: C_7  and  C_8 
REMARK    6  A    between atoms: C_10  and  C_11 
ROOT
ATOM      1  C   UNK d   1      21.264  13.623 -19.696  0.00  0.00     0.292 C 
ENDROOT
BRANCH   1   2
ATOM      2  N   UNK d   1      22.551  14.180 -19.146  0.00  0.00    -0.065 N 
ATOM      3  H   UNK d   1      23.361  14.080 -19.748  0.00  0.00     0.275 HD
ATOM      4  H   UNK d   1      22.818  13.750 -18.223  0.00  0.00     0.275 HD
ATOM      5  H   UNK d   1      22.337  15.176 -18.947  0.00  0.00     0.275 HD
ENDBRANCH   1   2
BRANCH   1   6
ATOM      6  C   UNK d   1      20.139  14.695 -19.629  0.00  0.00     0.205 C 
ATOM      7  O   UNK d   1      19.045  14.243 -20.103  0.00  0.00    -0.646 OA
ATOM      8  O   UNK d   1      20.415  15.803 -19.108  0.00  0.00    -0.646 OA
ENDBRANCH   1   6
BRANCH   1   9
ATOM      9  C   UNK d   1      20.831  12.368 -18.939  0.00  0.00     0.118 C 
BRANCH   9  10
ATOM     10  S   UNK d   1      21.267  10.820 -19.844  0.00  0.00    -0.156 SA
BRANCH  10  11
ATOM     11  C   UNK d   1      22.613  10.177 -18.773  0.00  0.00     0.186 C 
BRANCH  11  12
ATOM     12  C   UNK d   1      23.926  10.771 -19.293  0.00  0.00     0.182 C 
ATOM     13  O   UNK d   1      24.466  10.140 -20.258  0.00  0.00    -0.647 OA
ATOM     14  O   UNK d   1      24.349  11.802 -18.706  0.00  0.00    -0.647 OA
ENDBRANCH  11  12
ENDBRANCH  10  11
ENDBRANCH   9  10
ENDBRANCH   1   9
TORSDOF 6
ENDMDL
MODEL 6
REMARK minimizedAffinity -3.01818752REMARK CNNscore 0.572071314REMARK CNNaffinity 2.70667601REMARK  6 active torsions:
REMARK  status: ('A' for Active; 'I' for Inactive)
REMARK    1  A    between atoms: S_1  and  C_8 
REMARK    2  A    between atoms: S_1  and  C_10 
REMARK    3  A    between atoms: N_6  and  C_7 
REMARK    4  A    between atoms: C_7  and  C_9 
REMARK    5  A    between atoms: C_7  and  C_8 
REMARK    6  A    between atoms: C_10  and  C_11 
ROOT
ATOM      1  C   UNK d   1       8.625 -20.500  -9.641  0.00  0.00     0.292 C 
ENDROOT
BRANCH   1   2
ATOM      2  N   UNK d   1       9.943 -19.818  -9.900  0.00  0.00    -0.065 N 
ATOM      3  H   UNK d   1      10.671 -20.409 -10.288  0.00  0.00     0.275 HD
ATOM      4  H   UNK d   1      10.352 -19.382  -9.033  0.00  0.00     0.275 HD
ATOM      5  H   UNK d   1       9.706 -19.030 -10.532  0.00  0.00     0.275 HD
ENDBRANCH   1   2
BRANCH   1   6
ATOM      6  C   UNK d   1       7.466 -19.701 -10.303  0.00  0.00     0.205 C 
ATOM      7  O   UNK d   1       7.916 -18.745 -11.017  0.00  0.00    -0.646 OA
ATOM      8  O   UNK d   1       6.292 -20.096 -10.102  0.00  0.00    -0.646 OA
ENDBRANCH   1   6
BRANCH   1   9
ATOM      9  C   UNK d   1       8.362 -20.655  -8.145  0.00  0.00     0.118 C 
BRANCH   9  10
ATOM     10  S   UNK d   1       9.389 -19.506  -7.131  0.00  0.00    -0.156 SA
BRANCH  10  11
ATOM     11  C   UNK d   1       8.418 -19.481  -5.571  0.00  0.00     0.186 C 
BRANCH  11  12
ATOM     12  C   UNK d   1       9.305 -18.841  -4.499  0.00  0.00     0.182 C 
ATOM     13  O   UNK d   1       8.822 -17.804  -3.939  0.00  0.00    -0.647 OA
ATOM     14  O   UNK d   1      10.423 -19.383  -4.295  0.00  0.00    -0.647 OA
ENDBRANCH  11  12
ENDBRANCH  10  11
ENDBRANCH   9  10
ENDBRANCH   1   9
TORSDOF 6
ENDMDL
MODEL 7
REMARK minimizedAffinity -4.33701849REMARK CNNscore 0.543749869REMARK CNNaffinity 3.53280401REMARK  6 active torsions:
REMARK  status: ('A' for Active; 'I' for Inactive)
REMARK    1  A    between atoms: S_1  and  C_8 
REMARK    2  A    between atoms: S_1  and  C_10 
REMARK    3  A    between atoms: N_6  and  C_7 
REMARK    4  A    between atoms: C_7  and  C_9 
REMARK    5  A    between atoms: C_7  and  C_8 
REMARK    6  A    between atoms: C_10  and  C_11 
ROOT
ATOM      1  C   UNK d   1       8.167  -0.832  19.291  0.00  0.00     0.292 C 
ENDROOT
BRANCH   1   2
ATOM      2  N   UNK d   1       8.992   0.151  20.080  0.00  0.00    -0.065 N 
ATOM      3  H   UNK d   1       9.975   0.191  19.833  0.00  0.00     0.275 HD
ATOM      4  H   UNK d   1       8.958  -0.031  21.117  0.00  0.00     0.275 HD
ATOM      5  H   UNK d   1       8.518   1.062  19.933  0.00  0.00     0.275 HD
ENDBRANCH   1   2
BRANCH   1   6
ATOM      6  C   UNK d   1       6.912  -0.130  18.698  0.00  0.00     0.205 C 
ATOM      7  O   UNK d   1       6.875  -0.251  17.429  0.00  0.00    -0.646 OA
ATOM      8  O   UNK d   1       6.108   0.408  19.497  0.00  0.00    -0.646 OA
ENDBRANCH   1   6
BRANCH   1   9
ATOM      9  C   UNK d   1       7.740  -2.020  20.152  0.00  0.00     0.118 C 
BRANCH   9  10
ATOM     10  S   UNK d   1       7.511  -3.558  19.160  0.00  0.00    -0.156 SA
BRANCH  10  11
ATOM     11  C   UNK d   1       8.946  -3.435  18.020  0.00  0.00     0.186 C 
BRANCH  11  12
ATOM     12  C   UNK d   1       9.488  -4.855  17.823  0.00  0.00     0.182 C 
ATOM     13  O   UNK d   1       8.613  -5.780  17.844  0.00  0.00    -0.647 OA
ATOM     14  O   UNK d   1      10.734  -4.968  17.684  0.00  0.00    -0.647 OA
ENDBRANCH  11  12
ENDBRANCH  10  11
ENDBRANCH   9  10
ENDBRANCH   1   9
TORSDOF 6
ENDMDL
MODEL 8
REMARK minimizedAffinity -2.70137763REMARK CNNscore 0.509806454REMARK CNNaffinity 2.70349574REMARK  6 active torsions:
REMARK  status: ('A' for Active; 'I' for Inactive)
REMARK    1  A    between atoms: S_1  and  C_8 
REMARK    2  A    between atoms: S_1  and  C_10 
REMARK    3  A    between atoms: N_6  and  C_7 
REMARK    4  A    between atoms: C_7  and  C_9 
REMARK    5  A    between atoms: C_7  and  C_8 
REMARK    6  A    between atoms: C_10  and  C_11 
ROOT
ATOM      1  C   UNK d   1      11.182  -8.544 -13.356  0.00  0.00     0.292 C 
ENDROOT
BRANCH   1   2
ATOM      2  N   UNK d   1      12.210  -9.499 -12.808  0.00  0.00    -0.065 N 
ATOM      3  H   UNK d   1      12.084  -9.766 -11.838  0.00  0.00     0.275 HD
ATOM      4  H   UNK d   1      13.192  -9.127 -12.883  0.00  0.00     0.275 HD
ATOM      5  H   UNK d   1      12.166 -10.318 -13.444  0.00  0.00     0.275 HD
ENDBRANCH   1   2
BRANCH   1   6
ATOM      6  C   UNK d   1      10.579  -9.100 -14.677  0.00  0.00     0.205 C 
ATOM      7  O   UNK d   1      11.197 -10.147 -15.059  0.00  0.00    -0.646 OA
ATOM      8  O   UNK d   1       9.584  -8.509 -15.162  0.00  0.00    -0.646 OA
ENDBRANCH   1   6
BRANCH   1   9
ATOM      9  C   UNK d   1      11.782  -7.160 -13.599  0.00  0.00     0.118 C 
BRANCH   9  10
ATOM     10  S   UNK d   1      12.285  -6.329 -12.031  0.00  0.00    -0.156 SA
BRANCH  10  11
ATOM     11  C   UNK d   1      12.048  -4.568 -12.496  0.00  0.00     0.186 C 
BRANCH  11  12
ATOM     12  C   UNK d   1      11.402  -3.868 -11.297  0.00  0.00     0.182 C 
ATOM     13  O   UNK d   1      10.756  -4.628 -10.505  0.00  0.00    -0.647 OA
ATOM     14  O   UNK d   1      11.551  -2.620 -11.225  0.00  0.00    -0.647 OA
ENDBRANCH  11  12
ENDBRANCH  10  11
ENDBRANCH   9  10
ENDBRANCH   1   9
TORSDOF 6
ENDMDL
MODEL 9
REMARK minimizedAffinity -3.14058876REMARK CNNscore 0.501577795REMARK CNNaffinity 2.60496211REMARK  6 active torsions:
REMARK  status: ('A' for Active; 'I' for Inactive)
REMARK    1  A    between atoms: S_1  and  C_8 
REMARK    2  A    between atoms: S_1  and  C_10 
REMARK    3  A    between atoms: N_6  and  C_7 
REMARK    4  A    between atoms: C_7  and  C_9 
REMARK    5  A    between atoms: C_7  and  C_8 
REMARK    6  A    between atoms: C_10  and  C_11 
ROOT
ATOM      1  C   UNK d   1      19.960  -5.133  33.902  0.00  0.00     0.292 C 
ENDROOT
BRANCH   1   2
ATOM      2  N   UNK d   1      21.180  -5.833  34.442  0.00  0.00    -0.065 N 
ATOM      3  H   UNK d   1      21.052  -6.312  35.327  0.00  0.00     0.275 HD
ATOM      4  H   UNK d   1      21.995  -5.180  34.580  0.00  0.00     0.275 HD
ATOM      5  H   UNK d   1      21.460  -6.485  33.686  0.00  0.00     0.275 HD
ENDBRANCH   1   2
BRANCH   1   6
ATOM      6  C   UNK d   1      19.696  -5.568  32.432  0.00  0.00     0.205 C 
ATOM      7  O   UNK d   1      20.469  -6.523  32.090  0.00  0.00    -0.646 OA
ATOM      8  O   UNK d   1      18.777  -4.988  31.805  0.00  0.00    -0.646 OA
ENDBRANCH   1   6
BRANCH   1   9
ATOM      9  C   UNK d   1      20.109  -3.615  33.977  0.00  0.00     0.118 C 
BRANCH   9  10
ATOM     10  S   UNK d   1      18.596  -2.794  34.639  0.00  0.00    -0.156 SA
BRANCH  10  11
ATOM     11  C   UNK d   1      18.125  -1.754  33.200  0.00  0.00     0.186 C 
BRANCH  11  12
ATOM     12  C   UNK d   1      17.940  -0.325  33.718  0.00  0.00     0.182 C 
ATOM     13  O   UNK d   1      17.059  -0.184  34.627  0.00  0.00    -0.647 OA
ATOM     14  O   UNK d   1      18.653   0.565  33.184  0.00  0.00    -0.647 OA
ENDBRANCH  11  12
ENDBRANCH  10  11
ENDBRANCH   9  10
ENDBRANCH   1   9
TORSDOF 6
ENDMDL
