MODEL 1
REMARK VINA RESULT:      -7.4      0.000      0.000
REMARK  10 active torsions:
REMARK  status: ('A' for Active; 'I' for Inactive)
REMARK       I    between atoms: N_6  and  C_20 
REMARK    1  A    between atoms: N_6  and  C_21 
REMARK    2  A    between atoms: N_6  and  C_24 
REMARK    3  A    between atoms: N_7  and  C_14 
REMARK    4  A    between atoms: N_7  and  C_22 
REMARK    5  A    between atoms: N_9  and  C_35 
REMARK    6  A    between atoms: C_12  and  C_14 
REMARK    7  A    between atoms: C_15  and  C_20 
REMARK    8  A    between atoms: C_21  and  C_23 
REMARK    9  A    between atoms: C_23  and  C_31 
REMARK   10  A    between atoms: C_30  and  C_35 
ROOT
ATOM      1  N   LIG d   1       8.894  18.662   3.851  0.00  0.00    -0.337 N 
ATOM      2  N   LIG d   1      10.198  17.335   2.642  0.00  0.00    -0.232 NA
ATOM      3  C   LIG d   1       8.372  17.398   4.001  0.00  0.00     0.064 A 
ATOM      4  C   LIG d   1       9.960  18.589   2.980  0.00  0.00     0.120 A 
ATOM      5  C   LIG d   1       9.231  16.584   3.266  0.00  0.00     0.086 A 
ATOM      6  C   LIG d   1       7.925  14.663   3.928  0.00  0.00     0.035 A 
ATOM      7  C   LIG d   1       9.034  15.195   3.248  0.00  0.00     0.051 A 
ATOM      8  C   LIG d   1       7.276  16.892   4.709  0.00  0.00     0.033 A 
ATOM      9  C   LIG d   1       7.070  15.509   4.652  0.00  0.00     0.019 A 
ATOM     10  C   LIG d   1       8.433  19.854   4.519  0.00  0.00     0.158 C 
ENDROOT
BRANCH   4  11
ATOM     11  C   LIG d   1      10.753  19.774   2.508  0.00  0.00     0.171 C 
BRANCH  11  12
ATOM     12  N   LIG d   1      10.852  19.844   1.052  0.00  0.00    -0.286 NA
ATOM     13  H   LIG d   1      10.597  18.937   0.655  0.00  0.00     0.128 HD
BRANCH  12  14
ATOM     14  C   LIG d   1      10.215  20.895   0.379  0.00  0.00     0.008 A 
ATOM     15  C   LIG d   1      10.645  22.226   0.456  0.00  0.00     0.024 A 
ATOM     16  C   LIG d   1      10.030  23.234  -0.298  0.00  0.00     0.017 A 
ATOM     17  C   LIG d   1       8.982  22.923  -1.171  0.00  0.00     0.009 A 
ATOM     18  C   LIG d   1       8.580  21.592  -1.298  0.00  0.00     0.017 A 
ATOM     19  C   LIG d   1       9.199  20.593  -0.538  0.00  0.00     0.024 A 
BRANCH  17  20
ATOM     20  C   LIG d   1       8.305  23.986  -1.952  0.00  0.00     0.123 C 
ATOM     21  N   LIG d   1       7.342  23.651  -2.785  0.00  0.00    -0.284 NA
ATOM     22  H   LIG d   1       6.913  24.432  -3.296  0.00  0.00     0.188 HD
BRANCH  20  23
ATOM     23  N   LIG d   1       8.604  25.220  -1.837  0.00  0.00    -0.384 N 
ATOM     24  H   LIG d   1       9.590  25.455  -1.806  0.00  0.00     0.157 HD
ATOM     25  H   LIG d   1       7.899  25.945  -1.829  0.00  0.00     0.157 HD
ENDBRANCH  20  23
ENDBRANCH  17  20
ENDBRANCH  12  14
ENDBRANCH  11  12
ENDBRANCH   4  11
BRANCH   6  26
ATOM     26  C   LIG d   1       7.683  13.192   4.012  0.00  0.00     0.259 C 
ATOM     27  O   LIG d   1       8.076  12.632   5.041  0.00  0.00    -0.267 OA
ATOM     28  N   LIG d   1       7.137  12.495   2.924  0.00  0.00    -0.298 N 
BRANCH  28  29
ATOM     29  C   LIG d   1       7.355  11.038   2.888  0.00  0.00     0.144 C 
BRANCH  29  30
ATOM     30  C   LIG d   1       6.256  10.250   3.592  0.00  0.00     0.133 C 
BRANCH  30  31
ATOM     31  C   LIG d   1       5.483   9.321   2.671  0.00  0.00     0.174 C 
ATOM     32  O   LIG d   1       5.074   8.254   3.208  0.00  0.00    -0.648 OA
ATOM     33  O   LIG d   1       5.311   9.729   1.488  0.00  0.00    -0.648 OA
ENDBRANCH  30  31
ENDBRANCH  29  30
ENDBRANCH  28  29
BRANCH  28  34
ATOM     34  C   LIG d   1       6.130  13.062   2.087  0.00  0.00     0.132 A 
ATOM     35  N   LIG d   1       4.871  13.168   2.582  0.00  0.00    -0.243 NA
ATOM     36  C   LIG d   1       3.912  13.693   1.788  0.00  0.00     0.119 A 
ATOM     37  C   LIG d   1       4.129  14.124   0.494  0.00  0.00     0.019 A 
ATOM     38  C   LIG d   1       5.413  14.015  -0.012  0.00  0.00     0.005 A 
ATOM     39  C   LIG d   1       6.421  13.479   0.790  0.00  0.00     0.051 A 
ENDBRANCH  28  34
ENDBRANCH   6  26
TORSDOF 10
ENDMDL
MODEL 2
REMARK VINA RESULT:      -7.4     17.275     20.373
REMARK  10 active torsions:
REMARK  status: ('A' for Active; 'I' for Inactive)
REMARK       I    between atoms: N_6  and  C_20 
REMARK    1  A    between atoms: N_6  and  C_21 
REMARK    2  A    between atoms: N_6  and  C_24 
REMARK    3  A    between atoms: N_7  and  C_14 
REMARK    4  A    between atoms: N_7  and  C_22 
REMARK    5  A    between atoms: N_9  and  C_35 
REMARK    6  A    between atoms: C_12  and  C_14 
REMARK    7  A    between atoms: C_15  and  C_20 
REMARK    8  A    between atoms: C_21  and  C_23 
REMARK    9  A    between atoms: C_23  and  C_31 
REMARK   10  A    between atoms: C_30  and  C_35 
ROOT
ATOM      1  N   LIG d   1      24.764   8.176   3.571  0.00  0.00    -0.337 N 
ATOM      2  N   LIG d   1      24.522   6.908   1.767  0.00  0.00    -0.232 NA
ATOM      3  C   LIG d   1      23.823   8.814   2.797  0.00  0.00     0.064 A 
ATOM      4  C   LIG d   1      25.201   7.061   2.889  0.00  0.00     0.120 A 
ATOM      5  C   LIG d   1      23.663   7.977   1.695  0.00  0.00     0.086 A 
ATOM      6  C   LIG d   1      21.985   9.487   0.834  0.00  0.00     0.035 A 
ATOM      7  C   LIG d   1      22.713   8.291   0.712  0.00  0.00     0.051 A 
ATOM      8  C   LIG d   1      23.092   9.997   2.958  0.00  0.00     0.033 A 
ATOM      9  C   LIG d   1      22.175  10.316   1.951  0.00  0.00     0.019 A 
ATOM     10  C   LIG d   1      25.196   8.580   4.886  0.00  0.00     0.158 C 
ENDROOT
BRANCH   4  11
ATOM     11  C   LIG d   1      26.282   6.138   3.374  0.00  0.00     0.171 C 
BRANCH  11  12
ATOM     12  N   LIG d   1      25.799   4.779   3.613  0.00  0.00    -0.286 NA
ATOM     13  H   LIG d   1      26.319   4.131   3.016  0.00  0.00     0.128 HD
BRANCH  12  14
ATOM     14  C   LIG d   1      25.717   4.311   4.930  0.00  0.00     0.008 A 
ATOM     15  C   LIG d   1      25.072   3.118   5.280  0.00  0.00     0.024 A 
ATOM     16  C   LIG d   1      25.084   2.643   6.599  0.00  0.00     0.017 A 
ATOM     17  C   LIG d   1      25.770   3.346   7.595  0.00  0.00     0.009 A 
ATOM     18  C   LIG d   1      26.463   4.507   7.249  0.00  0.00     0.017 A 
ATOM     19  C   LIG d   1      26.442   4.974   5.930  0.00  0.00     0.024 A 
BRANCH  17  20
ATOM     20  C   LIG d   1      25.765   2.869   8.999  0.00  0.00     0.123 C 
ATOM     21  N   LIG d   1      24.612   2.689   9.609  0.00  0.00    -0.284 NA
ATOM     22  H   LIG d   1      24.677   2.358  10.579  0.00  0.00     0.188 HD
BRANCH  20  23
ATOM     23  N   LIG d   1      26.836   2.607   9.640  0.00  0.00    -0.384 N 
ATOM     24  H   LIG d   1      27.713   2.858   9.196  0.00  0.00     0.157 HD
ATOM     25  H   LIG d   1      26.822   2.213  10.571  0.00  0.00     0.157 HD
ENDBRANCH  20  23
ENDBRANCH  17  20
ENDBRANCH  12  14
ENDBRANCH  11  12
ENDBRANCH   4  11
BRANCH   6  26
ATOM     26  C   LIG d   1      20.911   9.860  -0.135  0.00  0.00     0.259 C 
ATOM     27  O   LIG d   1      19.770   9.963   0.329  0.00  0.00    -0.267 OA
ATOM     28  N   LIG d   1      21.192   9.973  -1.504  0.00  0.00    -0.298 N 
BRANCH  28  29
ATOM     29  C   LIG d   1      20.049   9.877  -2.429  0.00  0.00     0.144 C 
BRANCH  29  30
ATOM     30  C   LIG d   1      19.413   8.492  -2.455  0.00  0.00     0.133 C 
BRANCH  30  31
ATOM     31  C   LIG d   1      19.795   7.665  -3.672  0.00  0.00     0.174 C 
ATOM     32  O   LIG d   1      20.803   8.083  -4.307  0.00  0.00    -0.648 OA
ATOM     33  O   LIG d   1      19.086   6.643  -3.893  0.00  0.00    -0.648 OA
ENDBRANCH  30  31
ENDBRANCH  29  30
ENDBRANCH  28  29
BRANCH  28  34
ATOM     34  C   LIG d   1      22.425  10.506  -1.985  0.00  0.00     0.132 A 
ATOM     35  N   LIG d   1      23.291   9.661  -2.600  0.00  0.00    -0.243 NA
ATOM     36  C   LIG d   1      24.465  10.159  -3.046  0.00  0.00     0.119 A 
ATOM     37  C   LIG d   1      24.847  11.480  -2.910  0.00  0.00     0.019 A 
ATOM     38  C   LIG d   1      23.964  12.342  -2.282  0.00  0.00     0.005 A 
ATOM     39  C   LIG d   1      22.744  11.852  -1.815  0.00  0.00     0.051 A 
ENDBRANCH  28  34
ENDBRANCH   6  26
TORSDOF 10
ENDMDL
MODEL 3
REMARK VINA RESULT:      -7.3      1.997      3.100
REMARK  10 active torsions:
REMARK  status: ('A' for Active; 'I' for Inactive)
REMARK       I    between atoms: N_6  and  C_20 
REMARK    1  A    between atoms: N_6  and  C_21 
REMARK    2  A    between atoms: N_6  and  C_24 
REMARK    3  A    between atoms: N_7  and  C_14 
REMARK    4  A    between atoms: N_7  and  C_22 
REMARK    5  A    between atoms: N_9  and  C_35 
REMARK    6  A    between atoms: C_12  and  C_14 
REMARK    7  A    between atoms: C_15  and  C_20 
REMARK    8  A    between atoms: C_21  and  C_23 
REMARK    9  A    between atoms: C_23  and  C_31 
REMARK   10  A    between atoms: C_30  and  C_35 
ROOT
ATOM      1  N   LIG d   1      11.428  18.767   4.490  0.00  0.00    -0.337 N 
ATOM      2  N   LIG d   1      10.275  18.557   2.607  0.00  0.00    -0.232 NA
ATOM      3  C   LIG d   1      10.906  17.495   4.519  0.00  0.00     0.064 A 
ATOM      4  C   LIG d   1      10.979  19.393   3.347  0.00  0.00     0.120 A 
ATOM      5  C   LIG d   1      10.222  17.378   3.311  0.00  0.00     0.086 A 
ATOM      6  C   LIG d   1       9.645  15.107   3.895  0.00  0.00     0.035 A 
ATOM      7  C   LIG d   1       9.609  16.164   2.970  0.00  0.00     0.051 A 
ATOM      8  C   LIG d   1      10.981  16.450   5.447  0.00  0.00     0.033 A 
ATOM      9  C   LIG d   1      10.332  15.257   5.110  0.00  0.00     0.019 A 
ATOM     10  C   LIG d   1      12.324  19.339   5.465  0.00  0.00     0.158 C 
ENDROOT
BRANCH   4  11
ATOM     11  C   LIG d   1      11.276  20.821   2.988  0.00  0.00     0.171 C 
BRANCH  11  12
ATOM     12  N   LIG d   1      11.628  20.988   1.580  0.00  0.00    -0.286 NA
ATOM     13  H   LIG d   1      11.806  20.069   1.168  0.00  0.00     0.128 HD
BRANCH  12  14
ATOM     14  C   LIG d   1      10.799  21.766   0.762  0.00  0.00     0.008 A 
ATOM     15  C   LIG d   1      10.908  23.159   0.665  0.00  0.00     0.024 A 
ATOM     16  C   LIG d   1      10.114  23.891  -0.228  0.00  0.00     0.017 A 
ATOM     17  C   LIG d   1       9.208  23.234  -1.068  0.00  0.00     0.009 A 
ATOM     18  C   LIG d   1       9.130  21.842  -1.021  0.00  0.00     0.017 A 
ATOM     19  C   LIG d   1       9.925  21.120  -0.124  0.00  0.00     0.024 A 
BRANCH  17  20
ATOM     20  C   LIG d   1       8.342  24.001  -1.996  0.00  0.00     0.123 C 
ATOM     21  N   LIG d   1       8.357  25.316  -1.944  0.00  0.00    -0.284 NA
ATOM     22  H   LIG d   1       7.735  25.788  -2.612  0.00  0.00     0.188 HD
BRANCH  20  23
ATOM     23  N   LIG d   1       7.593  23.437  -2.861  0.00  0.00    -0.384 N 
ATOM     24  H   LIG d   1       6.593  23.476  -2.700  0.00  0.00     0.157 HD
ATOM     25  H   LIG d   1       7.967  23.013  -3.700  0.00  0.00     0.157 HD
ENDBRANCH  20  23
ENDBRANCH  17  20
ENDBRANCH  12  14
ENDBRANCH  11  12
ENDBRANCH   4  11
BRANCH   6  26
ATOM     26  C   LIG d   1       9.072  13.764   3.580  0.00  0.00     0.259 C 
ATOM     27  O   LIG d   1       9.856  12.935   3.104  0.00  0.00    -0.267 OA
ATOM     28  N   LIG d   1       7.699  13.521   3.726  0.00  0.00    -0.298 N 
BRANCH  28  29
ATOM     29  C   LIG d   1       7.141  12.379   2.981  0.00  0.00     0.144 C 
BRANCH  29  30
ATOM     30  C   LIG d   1       5.995  12.769   2.055  0.00  0.00     0.133 C 
BRANCH  30  31
ATOM     31  C   LIG d   1       6.450  13.324   0.716  0.00  0.00     0.174 C 
ATOM     32  O   LIG d   1       7.606  12.965   0.353  0.00  0.00    -0.648 OA
ATOM     33  O   LIG d   1       5.618  14.053   0.105  0.00  0.00    -0.648 OA
ENDBRANCH  30  31
ENDBRANCH  29  30
ENDBRANCH  28  29
BRANCH  28  34
ATOM     34  C   LIG d   1       6.936  14.088   4.789  0.00  0.00     0.132 A 
ATOM     35  N   LIG d   1       6.857  13.403   5.958  0.00  0.00    -0.243 NA
ATOM     36  C   LIG d   1       6.125  13.931   6.963  0.00  0.00     0.119 A 
ATOM     37  C   LIG d   1       5.441  15.128   6.877  0.00  0.00     0.019 A 
ATOM     38  C   LIG d   1       5.521  15.828   5.685  0.00  0.00     0.005 A 
ATOM     39  C   LIG d   1       6.273  15.304   4.633  0.00  0.00     0.051 A 
ENDBRANCH  28  34
ENDBRANCH   6  26
TORSDOF 10
ENDMDL
MODEL 4
REMARK VINA RESULT:      -7.2      4.312      9.980
REMARK  10 active torsions:
REMARK  status: ('A' for Active; 'I' for Inactive)
REMARK       I    between atoms: N_6  and  C_20 
REMARK    1  A    between atoms: N_6  and  C_21 
REMARK    2  A    between atoms: N_6  and  C_24 
REMARK    3  A    between atoms: N_7  and  C_14 
REMARK    4  A    between atoms: N_7  and  C_22 
REMARK    5  A    between atoms: N_9  and  C_35 
REMARK    6  A    between atoms: C_12  and  C_14 
REMARK    7  A    between atoms: C_15  and  C_20 
REMARK    8  A    between atoms: C_21  and  C_23 
REMARK    9  A    between atoms: C_23  and  C_31 
REMARK   10  A    between atoms: C_30  and  C_35 
ROOT
ATOM      1  N   LIG d   1      11.792  19.597   3.665  0.00  0.00    -0.337 N 
ATOM      2  N   LIG d   1       9.843  18.574   3.395  0.00  0.00    -0.232 NA
ATOM      3  C   LIG d   1      11.249  20.138   2.523  0.00  0.00     0.064 A 
ATOM      4  C   LIG d   1      10.939  18.619   4.129  0.00  0.00     0.120 A 
ATOM      5  C   LIG d   1      10.012  19.507   2.401  0.00  0.00     0.086 A 
ATOM      6  C   LIG d   1       9.573  20.824   0.424  0.00  0.00     0.035 A 
ATOM      7  C   LIG d   1       9.143  19.870   1.362  0.00  0.00     0.051 A 
ATOM      8  C   LIG d   1      11.691  21.110   1.619  0.00  0.00     0.033 A 
ATOM      9  C   LIG d   1      10.829  21.435   0.566  0.00  0.00     0.019 A 
ATOM     10  C   LIG d   1      13.024  20.006   4.294  0.00  0.00     0.158 C 
ENDROOT
BRANCH   4  11
ATOM     11  C   LIG d   1      11.213  17.748   5.321  0.00  0.00     0.171 C 
BRANCH  11  12
ATOM     12  N   LIG d   1      11.820  16.469   4.960  0.00  0.00    -0.286 NA
ATOM     13  H   LIG d   1      12.446  16.171   5.712  0.00  0.00     0.128 HD
BRANCH  12  14
ATOM     14  C   LIG d   1      10.992  15.422   4.537  0.00  0.00     0.008 A 
ATOM     15  C   LIG d   1      10.637  15.218   3.198  0.00  0.00     0.024 A 
ATOM     16  C   LIG d   1       9.874  14.109   2.807  0.00  0.00     0.017 A 
ATOM     17  C   LIG d   1       9.470  13.162   3.753  0.00  0.00     0.009 A 
ATOM     18  C   LIG d   1       9.863  13.324   5.083  0.00  0.00     0.017 A 
ATOM     19  C   LIG d   1      10.623  14.436   5.463  0.00  0.00     0.024 A 
BRANCH  17  20
ATOM     20  C   LIG d   1       8.638  12.000   3.356  0.00  0.00     0.123 C 
ATOM     21  N   LIG d   1       8.526  10.982   4.183  0.00  0.00    -0.284 NA
ATOM     22  H   LIG d   1       7.937  10.210   3.850  0.00  0.00     0.188 HD
BRANCH  20  23
ATOM     23  N   LIG d   1       8.006  11.954   2.250  0.00  0.00    -0.384 N 
ATOM     24  H   LIG d   1       7.714  12.838   1.848  0.00  0.00     0.157 HD
ATOM     25  H   LIG d   1       7.843  11.084   1.760  0.00  0.00     0.157 HD
ENDBRANCH  20  23
ENDBRANCH  17  20
ENDBRANCH  12  14
ENDBRANCH  11  12
ENDBRANCH   4  11
BRANCH   6  26
ATOM     26  C   LIG d   1       8.683  21.311  -0.672  0.00  0.00     0.259 C 
ATOM     27  O   LIG d   1       8.080  20.442  -1.312  0.00  0.00    -0.267 OA
ATOM     28  N   LIG d   1       8.637  22.672  -1.003  0.00  0.00    -0.298 N 
BRANCH  28  29
ATOM     29  C   LIG d   1       8.129  23.017  -2.342  0.00  0.00     0.144 C 
BRANCH  29  30
ATOM     30  C   LIG d   1       6.711  23.575  -2.321  0.00  0.00     0.133 C 
BRANCH  30  31
ATOM     31  C   LIG d   1       5.662  22.566  -1.881  0.00  0.00     0.174 C 
ATOM     32  O   LIG d   1       5.541  21.559  -2.632  0.00  0.00    -0.648 OA
ATOM     33  O   LIG d   1       5.054  22.832  -0.806  0.00  0.00    -0.648 OA
ENDBRANCH  30  31
ENDBRANCH  29  30
ENDBRANCH  28  29
BRANCH  28  34
ATOM     34  C   LIG d   1       8.722  23.698  -0.014  0.00  0.00     0.132 A 
ATOM     35  N   LIG d   1       7.868  23.643   1.040  0.00  0.00    -0.243 NA
ATOM     36  C   LIG d   1       7.936  24.620   1.972  0.00  0.00     0.119 A 
ATOM     37  C   LIG d   1       8.820  25.679   1.919  0.00  0.00     0.019 A 
ATOM     38  C   LIG d   1       9.692  25.735   0.844  0.00  0.00     0.005 A 
ATOM     39  C   LIG d   1       9.642  24.738  -0.130  0.00  0.00     0.051 A 
ENDBRANCH  28  34
ENDBRANCH   6  26
TORSDOF 10
ENDMDL
MODEL 5
REMARK VINA RESULT:      -7.2      5.234     12.711
REMARK  10 active torsions:
REMARK  status: ('A' for Active; 'I' for Inactive)
REMARK       I    between atoms: N_6  and  C_20 
REMARK    1  A    between atoms: N_6  and  C_21 
REMARK    2  A    between atoms: N_6  and  C_24 
REMARK    3  A    between atoms: N_7  and  C_14 
REMARK    4  A    between atoms: N_7  and  C_22 
REMARK    5  A    between atoms: N_9  and  C_35 
REMARK    6  A    between atoms: C_12  and  C_14 
REMARK    7  A    between atoms: C_15  and  C_20 
REMARK    8  A    between atoms: C_21  and  C_23 
REMARK    9  A    between atoms: C_23  and  C_31 
REMARK   10  A    between atoms: C_30  and  C_35 
ROOT
ATOM      1  N   LIG d   1       4.367   8.062   4.574  0.00  0.00    -0.337 N 
ATOM      2  N   LIG d   1       4.869   8.266   2.423  0.00  0.00    -0.232 NA
ATOM      3  C   LIG d   1       5.244   9.119   4.500  0.00  0.00     0.064 A 
ATOM      4  C   LIG d   1       4.210   7.540   3.308  0.00  0.00     0.120 A 
ATOM      5  C   LIG d   1       5.510   9.248   3.139  0.00  0.00     0.086 A 
ATOM      6  C   LIG d   1       6.926  11.142   3.628  0.00  0.00     0.035 A 
ATOM      7  C   LIG d   1       6.333  10.288   2.683  0.00  0.00     0.051 A 
ATOM      8  C   LIG d   1       5.799   9.972   5.461  0.00  0.00     0.033 A 
ATOM      9  C   LIG d   1       6.649  10.981   4.995  0.00  0.00     0.019 A 
ATOM     10  C   LIG d   1       3.694   7.599   5.763  0.00  0.00     0.158 C 
ENDROOT
BRANCH   4  11
ATOM     11  C   LIG d   1       3.381   6.331   2.985  0.00  0.00     0.171 C 
BRANCH  11  12
ATOM     12  N   LIG d   1       2.301   6.620   2.043  0.00  0.00    -0.286 NA
ATOM     13  H   LIG d   1       2.629   7.308   1.360  0.00  0.00     0.128 HD
BRANCH  12  14
ATOM     14  C   LIG d   1       1.640   5.554   1.422  0.00  0.00     0.008 A 
ATOM     15  C   LIG d   1       1.986   4.213   1.629  0.00  0.00     0.024 A 
ATOM     16  C   LIG d   1       1.245   3.172   1.053  0.00  0.00     0.017 A 
ATOM     17  C   LIG d   1       0.119   3.455   0.274  0.00  0.00     0.009 A 
ATOM     18  C   LIG d   1      -0.269   4.785   0.104  0.00  0.00     0.017 A 
ATOM     19  C   LIG d   1       0.479   5.817   0.682  0.00  0.00     0.024 A 
BRANCH  17  20
ATOM     20  C   LIG d   1      -0.656   2.364  -0.365  0.00  0.00     0.123 C 
ATOM     21  N   LIG d   1      -1.962   2.328  -0.205  0.00  0.00    -0.284 NA
ATOM     22  H   LIG d   1      -2.439   1.548  -0.671  0.00  0.00     0.188 HD
BRANCH  20  23
ATOM     23  N   LIG d   1      -0.109   1.463  -1.084  0.00  0.00    -0.384 N 
ATOM     24  H   LIG d   1       0.901   1.390  -1.043  0.00  0.00     0.157 HD
ATOM     25  H   LIG d   1      -0.653   0.812  -1.635  0.00  0.00     0.157 HD
ENDBRANCH  20  23
ENDBRANCH  17  20
ENDBRANCH  12  14
ENDBRANCH  11  12
ENDBRANCH   4  11
BRANCH   6  26
ATOM     26  C   LIG d   1       7.762  12.311   3.221  0.00  0.00     0.259 C 
ATOM     27  O   LIG d   1       8.984  12.126   3.197  0.00  0.00    -0.267 OA
ATOM     28  N   LIG d   1       7.174  13.563   2.991  0.00  0.00    -0.298 N 
BRANCH  28  29
ATOM     29  C   LIG d   1       8.061  14.738   3.057  0.00  0.00     0.144 C 
BRANCH  29  30
ATOM     30  C   LIG d   1       9.019  14.833   1.875  0.00  0.00     0.133 C 
BRANCH  30  31
ATOM     31  C   LIG d   1      10.311  15.567   2.192  0.00  0.00     0.174 C 
ATOM     32  O   LIG d   1      10.255  16.824   2.078  0.00  0.00    -0.648 OA
ATOM     33  O   LIG d   1      11.282  14.848   2.560  0.00  0.00    -0.648 OA
ENDBRANCH  30  31
ENDBRANCH  29  30
ENDBRANCH  28  29
BRANCH  28  34
ATOM     34  C   LIG d   1       5.894  13.699   2.376  0.00  0.00     0.132 A 
ATOM     35  N   LIG d   1       4.801  13.758   3.178  0.00  0.00    -0.243 NA
ATOM     36  C   LIG d   1       3.586  13.875   2.600  0.00  0.00     0.119 A 
ATOM     37  C   LIG d   1       3.381  13.933   1.235  0.00  0.00     0.019 A 
ATOM     38  C   LIG d   1       4.496  13.872   0.416  0.00  0.00     0.005 A 
ATOM     39  C   LIG d   1       5.761  13.753   0.990  0.00  0.00     0.051 A 
ENDBRANCH  28  34
ENDBRANCH   6  26
TORSDOF 10
ENDMDL
MODEL 6
REMARK VINA RESULT:      -7.2     18.482     22.051
REMARK  10 active torsions:
REMARK  status: ('A' for Active; 'I' for Inactive)
REMARK       I    between atoms: N_6  and  C_20 
REMARK    1  A    between atoms: N_6  and  C_21 
REMARK    2  A    between atoms: N_6  and  C_24 
REMARK    3  A    between atoms: N_7  and  C_14 
REMARK    4  A    between atoms: N_7  and  C_22 
REMARK    5  A    between atoms: N_9  and  C_35 
REMARK    6  A    between atoms: C_12  and  C_14 
REMARK    7  A    between atoms: C_15  and  C_20 
REMARK    8  A    between atoms: C_21  and  C_23 
REMARK    9  A    between atoms: C_23  and  C_31 
REMARK   10  A    between atoms: C_30  and  C_35 
ROOT
ATOM      1  N   LIG d   1      20.281  -2.741  -2.539  0.00  0.00    -0.337 N 
ATOM      2  N   LIG d   1      18.527  -1.446  -2.950  0.00  0.00    -0.232 NA
ATOM      3  C   LIG d   1      19.301  -3.587  -3.004  0.00  0.00     0.064 A 
ATOM      4  C   LIG d   1      19.756  -1.469  -2.468  0.00  0.00     0.120 A 
ATOM      5  C   LIG d   1      18.230  -2.743  -3.290  0.00  0.00     0.086 A 
ATOM      6  C   LIG d   1      16.972  -4.656  -4.060  0.00  0.00     0.035 A 
ATOM      7  C   LIG d   1      17.058  -3.269  -3.856  0.00  0.00     0.051 A 
ATOM      8  C   LIG d   1      19.252  -4.968  -3.224  0.00  0.00     0.033 A 
ATOM      9  C   LIG d   1      18.064  -5.484  -3.753  0.00  0.00     0.019 A 
ATOM     10  C   LIG d   1      21.637  -3.111  -2.215  0.00  0.00     0.158 C 
ENDROOT
BRANCH   4  11
ATOM     11  C   LIG d   1      20.496  -0.273  -1.941  0.00  0.00     0.171 C 
BRANCH  11  12
ATOM     12  N   LIG d   1      21.157   0.494  -2.996  0.00  0.00    -0.286 NA
ATOM     13  H   LIG d   1      21.496  -0.150  -3.714  0.00  0.00     0.128 HD
BRANCH  12  14
ATOM     14  C   LIG d   1      20.487   1.586  -3.560  0.00  0.00     0.008 A 
ATOM     15  C   LIG d   1      20.133   1.652  -4.913  0.00  0.00     0.024 A 
ATOM     16  C   LIG d   1      19.389   2.726  -5.420  0.00  0.00     0.017 A 
ATOM     17  C   LIG d   1      18.960   3.750  -4.570  0.00  0.00     0.009 A 
ATOM     18  C   LIG d   1      19.259   3.670  -3.209  0.00  0.00     0.017 A 
ATOM     19  C   LIG d   1      20.004   2.594  -2.713  0.00  0.00     0.024 A 
BRANCH  17  20
ATOM     20  C   LIG d   1      18.198   4.907  -5.100  0.00  0.00     0.123 C 
ATOM     21  N   LIG d   1      17.355   5.534  -4.308  0.00  0.00    -0.284 NA
ATOM     22  H   LIG d   1      16.859   6.326  -4.734  0.00  0.00     0.188 HD
BRANCH  20  23
ATOM     23  N   LIG d   1      18.340   5.334  -6.294  0.00  0.00    -0.384 N 
ATOM     24  H   LIG d   1      17.497   5.602  -6.790  0.00  0.00     0.157 HD
ATOM     25  H   LIG d   1      19.250   5.454  -6.717  0.00  0.00     0.157 HD
ENDBRANCH  20  23
ENDBRANCH  17  20
ENDBRANCH  12  14
ENDBRANCH  11  12
ENDBRANCH   4  11
BRANCH   6  26
ATOM     26  C   LIG d   1      15.787  -5.285  -4.717  0.00  0.00     0.259 C 
ATOM     27  O   LIG d   1      15.333  -6.297  -4.170  0.00  0.00    -0.267 OA
ATOM     28  N   LIG d   1      15.306  -4.798  -5.940  0.00  0.00    -0.298 N 
BRANCH  28  29
ATOM     29  C   LIG d   1      14.473  -5.712  -6.741  0.00  0.00     0.144 C 
BRANCH  29  30
ATOM     30  C   LIG d   1      13.191  -5.064  -7.252  0.00  0.00     0.133 C 
BRANCH  30  31
ATOM     31  C   LIG d   1      13.018  -5.153  -8.759  0.00  0.00     0.174 C 
ATOM     32  O   LIG d   1      14.071  -5.415  -9.404  0.00  0.00    -0.648 OA
ATOM     33  O   LIG d   1      11.843  -4.986  -9.193  0.00  0.00    -0.648 OA
ENDBRANCH  30  31
ENDBRANCH  29  30
ENDBRANCH  28  29
BRANCH  28  34
ATOM     34  C   LIG d   1      15.297  -3.406  -6.253  0.00  0.00     0.132 A 
ATOM     35  N   LIG d   1      14.442  -2.602  -5.572  0.00  0.00    -0.243 NA
ATOM     36  C   LIG d   1      14.421  -1.285  -5.874  0.00  0.00     0.119 A 
ATOM     37  C   LIG d   1      15.215  -0.700  -6.841  0.00  0.00     0.019 A 
ATOM     38  C   LIG d   1      16.088  -1.520  -7.537  0.00  0.00     0.005 A 
ATOM     39  C   LIG d   1      16.129  -2.883  -7.242  0.00  0.00     0.051 A 
ENDBRANCH  28  34
ENDBRANCH   6  26
TORSDOF 10
ENDMDL
MODEL 7
REMARK VINA RESULT:      -7.1      1.404      1.888
REMARK  10 active torsions:
REMARK  status: ('A' for Active; 'I' for Inactive)
REMARK       I    between atoms: N_6  and  C_20 
REMARK    1  A    between atoms: N_6  and  C_21 
REMARK    2  A    between atoms: N_6  and  C_24 
REMARK    3  A    between atoms: N_7  and  C_14 
REMARK    4  A    between atoms: N_7  and  C_22 
REMARK    5  A    between atoms: N_9  and  C_35 
REMARK    6  A    between atoms: C_12  and  C_14 
REMARK    7  A    between atoms: C_15  and  C_20 
REMARK    8  A    between atoms: C_21  and  C_23 
REMARK    9  A    between atoms: C_23  and  C_31 
REMARK   10  A    between atoms: C_30  and  C_35 
ROOT
ATOM      1  N   LIG d   1       9.582  17.581   3.137  0.00  0.00    -0.337 N 
ATOM      2  N   LIG d   1       9.439  16.649   1.129  0.00  0.00    -0.232 NA
ATOM      3  C   LIG d   1       9.083  16.318   3.353  0.00  0.00     0.064 A 
ATOM      4  C   LIG d   1       9.731  17.761   1.779  0.00  0.00     0.120 A 
ATOM      5  C   LIG d   1       9.042  15.745   2.084  0.00  0.00     0.086 A 
ATOM      6  C   LIG d   1       8.216  13.700   3.070  0.00  0.00     0.035 A 
ATOM      7  C   LIG d   1       8.636  14.411   1.933  0.00  0.00     0.051 A 
ATOM      8  C   LIG d   1       8.696  15.625   4.506  0.00  0.00     0.033 A 
ATOM      9  C   LIG d   1       8.258  14.307   4.335  0.00  0.00     0.019 A 
ATOM     10  C   LIG d   1       9.928  18.542   4.156  0.00  0.00     0.158 C 
ENDROOT
BRANCH   4  11
ATOM     11  C   LIG d   1      10.188  19.039   1.136  0.00  0.00     0.171 C 
BRANCH  11  12
ATOM     12  N   LIG d   1       9.682  19.200  -0.225  0.00  0.00    -0.286 NA
ATOM     13  H   LIG d   1       9.064  18.416  -0.447  0.00  0.00     0.128 HD
BRANCH  12  14
ATOM     14  C   LIG d   1       9.112  20.425  -0.596  0.00  0.00     0.008 A 
ATOM     15  C   LIG d   1       7.744  20.587  -0.849  0.00  0.00     0.024 A 
ATOM     16  C   LIG d   1       7.201  21.847  -1.136  0.00  0.00     0.017 A 
ATOM     17  C   LIG d   1       8.019  22.981  -1.148  0.00  0.00     0.009 A 
ATOM     18  C   LIG d   1       9.374  22.841  -0.843  0.00  0.00     0.017 A 
ATOM     19  C   LIG d   1       9.907  21.579  -0.561  0.00  0.00     0.024 A 
BRANCH  17  20
ATOM     20  C   LIG d   1       7.461  24.315  -1.479  0.00  0.00     0.123 C 
ATOM     21  N   LIG d   1       8.254  25.229  -1.997  0.00  0.00    -0.284 NA
ATOM     22  H   LIG d   1       7.808  26.130  -2.203  0.00  0.00     0.188 HD
BRANCH  20  23
ATOM     23  N   LIG d   1       6.234  24.611  -1.299  0.00  0.00    -0.384 N 
ATOM     24  H   LIG d   1       5.546  24.031  -1.768  0.00  0.00     0.157 HD
ATOM     25  H   LIG d   1       5.946  25.355  -0.677  0.00  0.00     0.157 HD
ENDBRANCH  20  23
ENDBRANCH  17  20
ENDBRANCH  12  14
ENDBRANCH  11  12
ENDBRANCH   4  11
BRANCH   6  26
ATOM     26  C   LIG d   1       7.832  12.259   3.002  0.00  0.00     0.259 C 
ATOM     27  O   LIG d   1       8.689  11.448   3.371  0.00  0.00    -0.267 OA
ATOM     28  N   LIG d   1       6.604  11.872   2.446  0.00  0.00    -0.298 N 
BRANCH  28  29
ATOM     29  C   LIG d   1       6.489  10.476   1.989  0.00  0.00     0.144 C 
BRANCH  29  30
ATOM     30  C   LIG d   1       5.261   9.763   2.543  0.00  0.00     0.133 C 
BRANCH  30  31
ATOM     31  C   LIG d   1       5.545   8.921   3.775  0.00  0.00     0.174 C 
ATOM     32  O   LIG d   1       5.006   7.779   3.779  0.00  0.00    -0.648 OA
ATOM     33  O   LIG d   1       6.306   9.440   4.639  0.00  0.00    -0.648 OA
ENDBRANCH  30  31
ENDBRANCH  29  30
ENDBRANCH  28  29
BRANCH  28  34
ATOM     34  C   LIG d   1       5.414  12.638   2.626  0.00  0.00     0.132 A 
ATOM     35  N   LIG d   1       4.918  12.765   3.883  0.00  0.00    -0.243 NA
ATOM     36  C   LIG d   1       3.784  13.480   4.056  0.00  0.00     0.119 A 
ATOM     37  C   LIG d   1       3.088  14.088   3.030  0.00  0.00     0.019 A 
ATOM     38  C   LIG d   1       3.593  13.958   1.747  0.00  0.00     0.005 A 
ATOM     39  C   LIG d   1       4.764  13.227   1.543  0.00  0.00     0.051 A 
ENDBRANCH  28  34
ENDBRANCH   6  26
TORSDOF 10
ENDMDL
MODEL 8
REMARK VINA RESULT:      -7.0      6.993     11.456
REMARK  10 active torsions:
REMARK  status: ('A' for Active; 'I' for Inactive)
REMARK       I    between atoms: N_6  and  C_20 
REMARK    1  A    between atoms: N_6  and  C_21 
REMARK    2  A    between atoms: N_6  and  C_24 
REMARK    3  A    between atoms: N_7  and  C_14 
REMARK    4  A    between atoms: N_7  and  C_22 
REMARK    5  A    between atoms: N_9  and  C_35 
REMARK    6  A    between atoms: C_12  and  C_14 
REMARK    7  A    between atoms: C_15  and  C_20 
REMARK    8  A    between atoms: C_21  and  C_23 
REMARK    9  A    between atoms: C_23  and  C_31 
REMARK   10  A    between atoms: C_30  and  C_35 
ROOT
ATOM      1  N   LIG d   1       1.481   7.081   2.670  0.00  0.00    -0.337 N 
ATOM      2  N   LIG d   1       2.701   8.501   1.480  0.00  0.00    -0.232 NA
ATOM      3  C   LIG d   1       0.811   7.232   1.478  0.00  0.00     0.064 A 
ATOM      4  C   LIG d   1       2.585   7.905   2.652  0.00  0.00     0.120 A 
ATOM      5  C   LIG d   1       1.618   8.094   0.739  0.00  0.00     0.086 A 
ATOM      6  C   LIG d   1       0.064   7.919  -1.102  0.00  0.00     0.035 A 
ATOM      7  C   LIG d   1       1.267   8.423  -0.579  0.00  0.00     0.051 A 
ATOM      8  C   LIG d   1      -0.378   6.694   0.972  0.00  0.00     0.033 A 
ATOM      9  C   LIG d   1      -0.735   7.060  -0.330  0.00  0.00     0.019 A 
ATOM     10  C   LIG d   1       1.115   6.187   3.740  0.00  0.00     0.158 C 
ENDROOT
BRANCH   4  11
ATOM     11  C   LIG d   1       3.535   8.076   3.803  0.00  0.00     0.171 C 
BRANCH  11  12
ATOM     12  N   LIG d   1       4.937   8.003   3.394  0.00  0.00    -0.286 NA
ATOM     13  H   LIG d   1       5.000   7.504   2.503  0.00  0.00     0.128 HD
BRANCH  12  14
ATOM     14  C   LIG d   1       5.701   9.176   3.381  0.00  0.00     0.008 A 
ATOM     15  C   LIG d   1       6.492   9.587   4.461  0.00  0.00     0.024 A 
ATOM     16  C   LIG d   1       7.307  10.724   4.376  0.00  0.00     0.017 A 
ATOM     17  C   LIG d   1       7.365  11.463   3.189  0.00  0.00     0.009 A 
ATOM     18  C   LIG d   1       6.623  11.033   2.088  0.00  0.00     0.017 A 
ATOM     19  C   LIG d   1       5.811   9.897   2.184  0.00  0.00     0.024 A 
BRANCH  17  20
ATOM     20  C   LIG d   1       8.201  12.684   3.097  0.00  0.00     0.123 C 
ATOM     21  N   LIG d   1       9.512  12.563   3.088  0.00  0.00    -0.284 NA
ATOM     22  H   LIG d   1      10.033  13.445   3.023  0.00  0.00     0.188 HD
BRANCH  20  23
ATOM     23  N   LIG d   1       7.700  13.854   3.005  0.00  0.00    -0.384 N 
ATOM     24  H   LIG d   1       7.371  14.144   2.091  0.00  0.00     0.157 HD
ATOM     25  H   LIG d   1       7.584  14.453   3.812  0.00  0.00     0.157 HD
ENDBRANCH  20  23
ENDBRANCH  17  20
ENDBRANCH  12  14
ENDBRANCH  11  12
ENDBRANCH   4  11
BRANCH   6  26
ATOM     26  C   LIG d   1      -0.348   8.169  -2.515  0.00  0.00     0.259 C 
ATOM     27  O   LIG d   1      -0.782   7.193  -3.138  0.00  0.00    -0.267 OA
ATOM     28  N   LIG d   1      -0.142   9.422  -3.108  0.00  0.00    -0.298 N 
BRANCH  28  29
ATOM     29  C   LIG d   1      -0.127   9.470  -4.581  0.00  0.00     0.144 C 
BRANCH  29  30
ATOM     30  C   LIG d   1       1.213   9.060  -5.181  0.00  0.00     0.133 C 
BRANCH  30  31
ATOM     31  C   LIG d   1       1.967  10.207  -5.835  0.00  0.00     0.174 C 
ATOM     32  O   LIG d   1       2.152  10.085  -7.078  0.00  0.00    -0.648 OA
ATOM     33  O   LIG d   1       2.296  11.159  -5.074  0.00  0.00    -0.648 OA
ENDBRANCH  30  31
ENDBRANCH  29  30
ENDBRANCH  28  29
BRANCH  28  34
ATOM     34  C   LIG d   1      -0.295  10.641  -2.382  0.00  0.00     0.132 A 
ATOM     35  N   LIG d   1       0.822  11.345  -2.069  0.00  0.00    -0.243 NA
ATOM     36  C   LIG d   1       0.682  12.493  -1.370  0.00  0.00     0.119 A 
ATOM     37  C   LIG d   1      -0.532  12.997  -0.945  0.00  0.00     0.019 A 
ATOM     38  C   LIG d   1      -1.672  12.279  -1.264  0.00  0.00     0.005 A 
ATOM     39  C   LIG d   1      -1.553  11.092  -1.986  0.00  0.00     0.051 A 
ENDBRANCH  28  34
ENDBRANCH   6  26
TORSDOF 10
ENDMDL
MODEL 9
REMARK VINA RESULT:      -7.0      5.536     10.676
REMARK  10 active torsions:
REMARK  status: ('A' for Active; 'I' for Inactive)
REMARK       I    between atoms: N_6  and  C_20 
REMARK    1  A    between atoms: N_6  and  C_21 
REMARK    2  A    between atoms: N_6  and  C_24 
REMARK    3  A    between atoms: N_7  and  C_14 
REMARK    4  A    between atoms: N_7  and  C_22 
REMARK    5  A    between atoms: N_9  and  C_35 
REMARK    6  A    between atoms: C_12  and  C_14 
REMARK    7  A    between atoms: C_15  and  C_20 
REMARK    8  A    between atoms: C_21  and  C_23 
REMARK    9  A    between atoms: C_23  and  C_31 
REMARK   10  A    between atoms: C_30  and  C_35 
ROOT
ATOM      1  N   LIG d   1       9.777  20.663   0.376  0.00  0.00    -0.337 N 
ATOM      2  N   LIG d   1       8.004  19.691  -0.537  0.00  0.00    -0.232 NA
ATOM      3  C   LIG d   1       8.940  21.692   0.013  0.00  0.00     0.064 A 
ATOM      4  C   LIG d   1       9.201  19.476  -0.023  0.00  0.00     0.120 A 
ATOM      5  C   LIG d   1       7.823  21.052  -0.519  0.00  0.00     0.086 A 
ATOM      6  C   LIG d   1       6.797  23.210  -0.873  0.00  0.00     0.035 A 
ATOM      7  C   LIG d   1       6.719  21.809  -0.940  0.00  0.00     0.051 A 
ATOM      8  C   LIG d   1       9.033  23.085   0.116  0.00  0.00     0.033 A 
ATOM      9  C   LIG d   1       7.940  23.828  -0.342  0.00  0.00     0.019 A 
ATOM     10  C   LIG d   1      11.026  20.795   1.086  0.00  0.00     0.158 C 
ENDROOT
BRANCH   4  11
ATOM     11  C   LIG d   1       9.842  18.127   0.133  0.00  0.00     0.171 C 
BRANCH  11  12
ATOM     12  N   LIG d   1       8.880  17.080   0.473  0.00  0.00    -0.286 NA
ATOM     13  H   LIG d   1       8.716  16.496  -0.351  0.00  0.00     0.128 HD
BRANCH  12  14
ATOM     14  C   LIG d   1       9.099  16.304   1.618  0.00  0.00     0.008 A 
ATOM     15  C   LIG d   1       9.048  14.904   1.615  0.00  0.00     0.024 A 
ATOM     16  C   LIG d   1       9.356  14.162   2.764  0.00  0.00     0.017 A 
ATOM     17  C   LIG d   1       9.750  14.812   3.939  0.00  0.00     0.009 A 
ATOM     18  C   LIG d   1       9.857  16.203   3.938  0.00  0.00     0.017 A 
ATOM     19  C   LIG d   1       9.545  16.935   2.787  0.00  0.00     0.024 A 
BRANCH  17  20
ATOM     20  C   LIG d   1      10.049  14.039   5.168  0.00  0.00     0.123 C 
ATOM     21  N   LIG d   1      10.514  14.673   6.224  0.00  0.00    -0.284 NA
ATOM     22  H   LIG d   1      10.702  14.083   7.043  0.00  0.00     0.188 HD
BRANCH  20  23
ATOM     23  N   LIG d   1       9.856  12.781   5.254  0.00  0.00    -0.384 N 
ATOM     24  H   LIG d   1       9.198  12.370   4.601  0.00  0.00     0.157 HD
ATOM     25  H   LIG d   1      10.370  12.202   5.905  0.00  0.00     0.157 HD
ENDBRANCH  20  23
ENDBRANCH  17  20
ENDBRANCH  12  14
ENDBRANCH  11  12
ENDBRANCH   4  11
BRANCH   6  26
ATOM     26  C   LIG d   1       5.642  24.083  -1.240  0.00  0.00     0.259 C 
ATOM     27  O   LIG d   1       5.307  24.074  -2.430  0.00  0.00    -0.267 OA
ATOM     28  N   LIG d   1       5.060  24.935  -0.290  0.00  0.00    -0.298 N 
BRANCH  28  29
ATOM     29  C   LIG d   1       4.274  26.070  -0.804  0.00  0.00     0.144 C 
BRANCH  29  30
ATOM     30  C   LIG d   1       2.794  25.985  -0.449  0.00  0.00     0.133 C 
BRANCH  30  31
ATOM     31  C   LIG d   1       1.947  25.306  -1.513  0.00  0.00     0.174 C 
ATOM     32  O   LIG d   1       1.537  26.065  -2.435  0.00  0.00    -0.648 OA
ATOM     33  O   LIG d   1       1.774  24.062  -1.373  0.00  0.00    -0.648 OA
ENDBRANCH  30  31
ENDBRANCH  29  30
ENDBRANCH  28  29
BRANCH  28  34
ATOM     34  C   LIG d   1       4.912  24.559   1.078  0.00  0.00     0.132 A 
ATOM     35  N   LIG d   1       5.532  25.313   2.021  0.00  0.00    -0.243 NA
ATOM     36  C   LIG d   1       5.404  24.952   3.317  0.00  0.00     0.119 A 
ATOM     37  C   LIG d   1       4.684  23.855   3.748  0.00  0.00     0.019 A 
ATOM     38  C   LIG d   1       4.052  23.084   2.786  0.00  0.00     0.005 A 
ATOM     39  C   LIG d   1       4.168  23.438   1.442  0.00  0.00     0.051 A 
ENDBRANCH  28  34
ENDBRANCH   6  26
TORSDOF 10
ENDMDL
