MODEL 1
REMARK VINA RESULT:      -4.2      0.000      0.000
REMARK  6 active torsions:
REMARK  status: ('A' for Active; 'I' for Inactive)
REMARK    1  A    between atoms: S_1  and  C_8 
REMARK    2  A    between atoms: S_1  and  C_10 
REMARK    3  A    between atoms: N_6  and  C_7 
REMARK    4  A    between atoms: C_7  and  C_9 
REMARK    5  A    between atoms: C_7  and  C_8 
REMARK    6  A    between atoms: C_10  and  C_11 
ROOT
ATOM      1  C   UNK d   1       8.178  -1.589  19.680  0.00  0.00     0.292 C 
ENDROOT
BRANCH   1   2
ATOM      2  N   UNK d   1       9.306  -2.565  19.476  0.00  0.00    -0.065 N 
ATOM      3  H   UNK d   1       9.943  -2.667  20.259  0.00  0.00     0.275 HD
ATOM      4  H   UNK d   1       9.905  -2.326  18.643  0.00  0.00     0.275 HD
ATOM      5  H   UNK d   1       8.835  -3.459  19.241  0.00  0.00     0.275 HD
ENDBRANCH   1   2
BRANCH   1   6
ATOM      6  C   UNK d   1       7.144  -1.709  18.524  0.00  0.00     0.205 C 
ATOM      7  O   UNK d   1       7.159  -0.669  17.786  0.00  0.00    -0.646 OA
ATOM      8  O   UNK d   1       6.485  -2.772  18.435  0.00  0.00    -0.646 OA
ENDBRANCH   1   6
BRANCH   1   9
ATOM      9  C   UNK d   1       8.692  -0.153  19.771  0.00  0.00     0.118 C 
BRANCH   9  10
ATOM     10  S   UNK d   1       9.091   0.339  21.503  0.00  0.00    -0.156 SA
BRANCH  10  11
ATOM     11  C   UNK d   1      10.916   0.131  21.496  0.00  0.00     0.186 C 
BRANCH  11  12
ATOM     12  C   UNK d   1      11.214  -1.251  22.088  0.00  0.00     0.182 C 
ATOM     13  O   UNK d   1      10.197  -1.902  22.492  0.00  0.00    -0.647 OA
ATOM     14  O   UNK d   1      12.425  -1.593  22.139  0.00  0.00    -0.647 OA
ENDBRANCH  11  12
ENDBRANCH  10  11
ENDBRANCH   9  10
ENDBRANCH   1   9
TORSDOF 6
ENDMDL
MODEL 2
REMARK VINA RESULT:      -4.2     24.349     25.473
REMARK  6 active torsions:
REMARK  status: ('A' for Active; 'I' for Inactive)
REMARK    1  A    between atoms: S_1  and  C_8 
REMARK    2  A    between atoms: S_1  and  C_10 
REMARK    3  A    between atoms: N_6  and  C_7 
REMARK    4  A    between atoms: C_7  and  C_9 
REMARK    5  A    between atoms: C_7  and  C_8 
REMARK    6  A    between atoms: C_10  and  C_11 
ROOT
ATOM      1  C   UNK d   1      14.860  -0.656  -4.828  0.00  0.00     0.292 C 
ENDROOT
BRANCH   1   2
ATOM      2  N   UNK d   1      14.801  -0.423  -3.341  0.00  0.00    -0.065 N 
ATOM      3  H   UNK d   1      14.445  -1.199  -2.792  0.00  0.00     0.275 HD
ATOM      4  H   UNK d   1      14.211   0.411  -3.083  0.00  0.00     0.275 HD
ATOM      5  H   UNK d   1      15.774  -0.177  -3.079  0.00  0.00     0.275 HD
ENDBRANCH   1   2
BRANCH   1   6
ATOM      6  C   UNK d   1      13.741   0.153  -5.546  0.00  0.00     0.205 C 
ATOM      7  O   UNK d   1      13.403   1.174  -4.861  0.00  0.00    -0.646 OA
ATOM      8  O   UNK d   1      13.355  -0.250  -6.669  0.00  0.00    -0.646 OA
ENDBRANCH   1   6
BRANCH   1   9
ATOM      9  C   UNK d   1      14.728  -2.140  -5.166  0.00  0.00     0.118 C 
BRANCH   9  10
ATOM     10  S   UNK d   1      16.367  -2.962  -5.359  0.00  0.00    -0.156 SA
BRANCH  10  11
ATOM     11  C   UNK d   1      16.261  -4.229  -4.033  0.00  0.00     0.186 C 
BRANCH  11  12
ATOM     12  C   UNK d   1      16.538  -3.517  -2.705  0.00  0.00     0.182 C 
ATOM     13  O   UNK d   1      17.241  -2.459  -2.791  0.00  0.00    -0.647 OA
ATOM     14  O   UNK d   1      16.066  -4.054  -1.669  0.00  0.00    -0.647 OA
ENDBRANCH  11  12
ENDBRANCH  10  11
ENDBRANCH   9  10
ENDBRANCH   1   9
TORSDOF 6
ENDMDL
MODEL 3
REMARK VINA RESULT:      -4.1     42.433     43.494
REMARK  6 active torsions:
REMARK  status: ('A' for Active; 'I' for Inactive)
REMARK    1  A    between atoms: S_1  and  C_8 
REMARK    2  A    between atoms: S_1  and  C_10 
REMARK    3  A    between atoms: N_6  and  C_7 
REMARK    4  A    between atoms: C_7  and  C_9 
REMARK    5  A    between atoms: C_7  and  C_8 
REMARK    6  A    between atoms: C_10  and  C_11 
ROOT
ATOM      1  C   UNK d   1       5.910  26.687 -13.395  0.00  0.00     0.292 C 
ENDROOT
BRANCH   1   2
ATOM      2  N   UNK d   1       6.205  26.481 -14.857  0.00  0.00    -0.065 N 
ATOM      3  H   UNK d   1       5.955  25.571 -15.229  0.00  0.00     0.275 HD
ATOM      4  H   UNK d   1       7.224  26.620 -15.090  0.00  0.00     0.275 HD
ATOM      5  H   UNK d   1       5.696  27.248 -15.335  0.00  0.00     0.275 HD
ENDBRANCH   1   2
BRANCH   1   6
ATOM      6  C   UNK d   1       4.875  27.834 -13.210  0.00  0.00     0.205 C 
ATOM      7  O   UNK d   1       5.425  28.975 -13.357  0.00  0.00    -0.646 OA
ATOM      8  O   UNK d   1       3.682  27.517 -12.992  0.00  0.00    -0.646 OA
ENDBRANCH   1   6
BRANCH   1   9
ATOM      9  C   UNK d   1       7.181  27.000 -12.608  0.00  0.00     0.118 C 
BRANCH   9  10
ATOM     10  S   UNK d   1       7.013  26.592 -10.816  0.00  0.00    -0.156 SA
BRANCH  10  11
ATOM     11  C   UNK d   1       6.953  28.280 -10.095  0.00  0.00     0.186 C 
BRANCH  11  12
ATOM     12  C   UNK d   1       5.498  28.548  -9.697  0.00  0.00     0.182 C 
ATOM     13  O   UNK d   1       5.214  29.766  -9.456  0.00  0.00    -0.647 OA
ATOM     14  O   UNK d   1       4.740  27.545  -9.626  0.00  0.00    -0.647 OA
ENDBRANCH  11  12
ENDBRANCH  10  11
ENDBRANCH   9  10
ENDBRANCH   1   9
TORSDOF 6
ENDMDL
MODEL 4
REMARK VINA RESULT:      -4.1      2.271      2.383
REMARK  6 active torsions:
REMARK  status: ('A' for Active; 'I' for Inactive)
REMARK    1  A    between atoms: S_1  and  C_8 
REMARK    2  A    between atoms: S_1  and  C_10 
REMARK    3  A    between atoms: N_6  and  C_7 
REMARK    4  A    between atoms: C_7  and  C_9 
REMARK    5  A    between atoms: C_7  and  C_8 
REMARK    6  A    between atoms: C_10  and  C_11 
ROOT
ATOM      1  C   UNK d   1       7.417  -0.606  18.594  0.00  0.00     0.292 C 
ENDROOT
BRANCH   1   2
ATOM      2  N   UNK d   1       6.373   0.049  17.728  0.00  0.00    -0.065 N 
ATOM      3  H   UNK d   1       6.013  -0.523  16.971  0.00  0.00     0.275 HD
ATOM      4  H   UNK d   1       6.716   0.940  17.282  0.00  0.00     0.275 HD
ATOM      5  H   UNK d   1       5.627   0.330  18.391  0.00  0.00     0.275 HD
ENDBRANCH   1   2
BRANCH   1   6
ATOM      6  C   UNK d   1       7.578  -2.104  18.206  0.00  0.00     0.205 C 
ATOM      7  O   UNK d   1       8.748  -2.338  17.757  0.00  0.00    -0.646 OA
ATOM      8  O   UNK d   1       6.605  -2.870  18.407  0.00  0.00    -0.646 OA
ENDBRANCH   1   6
BRANCH   1   9
ATOM      9  C   UNK d   1       7.067  -0.488  20.076  0.00  0.00     0.118 C 
BRANCH   9  10
ATOM     10  S   UNK d   1       8.270  -1.379  21.154  0.00  0.00    -0.156 SA
BRANCH  10  11
ATOM     11  C   UNK d   1       8.923   0.019  22.150  0.00  0.00     0.186 C 
BRANCH  11  12
ATOM     12  C   UNK d   1      10.160   0.552  21.422  0.00  0.00     0.182 C 
ATOM     13  O   UNK d   1      10.027   1.702  20.890  0.00  0.00    -0.647 OA
ATOM     14  O   UNK d   1      11.170  -0.200  21.401  0.00  0.00    -0.647 OA
ENDBRANCH  11  12
ENDBRANCH  10  11
ENDBRANCH   9  10
ENDBRANCH   1   9
TORSDOF 6
ENDMDL
MODEL 5
REMARK VINA RESULT:      -4.0     26.189     27.744
REMARK  6 active torsions:
REMARK  status: ('A' for Active; 'I' for Inactive)
REMARK    1  A    between atoms: S_1  and  C_8 
REMARK    2  A    between atoms: S_1  and  C_10 
REMARK    3  A    between atoms: N_6  and  C_7 
REMARK    4  A    between atoms: C_7  and  C_9 
REMARK    5  A    between atoms: C_7  and  C_8 
REMARK    6  A    between atoms: C_10  and  C_11 
ROOT
ATOM      1  C   UNK d   1      13.488  -0.337  -5.254  0.00  0.00     0.292 C 
ENDROOT
BRANCH   1   2
ATOM      2  N   UNK d   1      13.404   0.688  -6.355  0.00  0.00    -0.065 N 
ATOM      3  H   UNK d   1      14.285   0.922  -6.801  0.00  0.00     0.275 HD
ATOM      4  H   UNK d   1      12.991   1.601  -6.030  0.00  0.00     0.275 HD
ATOM      5  H   UNK d   1      12.723   0.289  -7.028  0.00  0.00     0.275 HD
ENDBRANCH   1   2
BRANCH   1   6
ATOM      6  C   UNK d   1      14.509   0.115  -4.172  0.00  0.00     0.205 C 
ATOM      7  O   UNK d   1      14.343   1.343  -3.870  0.00  0.00    -0.646 OA
ATOM      8  O   UNK d   1      15.303  -0.744  -3.720  0.00  0.00    -0.646 OA
ENDBRANCH   1   6
BRANCH   1   9
ATOM      9  C   UNK d   1      13.880  -1.710  -5.799  0.00  0.00     0.118 C 
BRANCH   9  10
ATOM     10  S   UNK d   1      14.678  -1.602  -7.459  0.00  0.00    -0.156 SA
BRANCH  10  11
ATOM     11  C   UNK d   1      14.191  -3.226  -8.167  0.00  0.00     0.186 C 
BRANCH  11  12
ATOM     12  C   UNK d   1      12.965  -2.982  -9.052  0.00  0.00     0.182 C 
ATOM     13  O   UNK d   1      12.001  -3.798  -8.885  0.00  0.00    -0.647 OA
ATOM     14  O   UNK d   1      13.038  -2.024  -9.865  0.00  0.00    -0.647 OA
ENDBRANCH  11  12
ENDBRANCH  10  11
ENDBRANCH   9  10
ENDBRANCH   1   9
TORSDOF 6
ENDMDL
MODEL 6
REMARK VINA RESULT:      -4.0     25.241     26.235
REMARK  6 active torsions:
REMARK  status: ('A' for Active; 'I' for Inactive)
REMARK    1  A    between atoms: S_1  and  C_8 
REMARK    2  A    between atoms: S_1  and  C_10 
REMARK    3  A    between atoms: N_6  and  C_7 
REMARK    4  A    between atoms: C_7  and  C_9 
REMARK    5  A    between atoms: C_7  and  C_8 
REMARK    6  A    between atoms: C_10  and  C_11 
ROOT
ATOM      1  C   UNK d   1      15.856  -2.835  -5.090  0.00  0.00     0.292 C 
ENDROOT
BRANCH   1   2
ATOM      2  N   UNK d   1      14.459  -3.170  -5.542  0.00  0.00    -0.065 N 
ATOM      3  H   UNK d   1      13.820  -3.457  -4.809  0.00  0.00     0.275 HD
ATOM      4  H   UNK d   1      14.439  -3.937  -6.264  0.00  0.00     0.275 HD
ATOM      5  H   UNK d   1      14.132  -2.313  -6.027  0.00  0.00     0.275 HD
ENDBRANCH   1   2
BRANCH   1   6
ATOM      6  C   UNK d   1      15.888  -2.623  -3.549  0.00  0.00     0.205 C 
ATOM      7  O   UNK d   1      16.136  -3.716  -2.941  0.00  0.00    -0.646 OA
ATOM      8  O   UNK d   1      15.717  -1.459  -3.114  0.00  0.00    -0.646 OA
ENDBRANCH   1   6
BRANCH   1   9
ATOM      9  C   UNK d   1      16.388  -1.590  -5.798  0.00  0.00     0.118 C 
BRANCH   9  10
ATOM     10  S   UNK d   1      15.199  -0.933  -7.046  0.00  0.00    -0.156 SA
BRANCH  10  11
ATOM     11  C   UNK d   1      14.760   0.675  -6.273  0.00  0.00     0.186 C 
BRANCH  11  12
ATOM     12  C   UNK d   1      13.671   0.392  -5.233  0.00  0.00     0.182 C 
ATOM     13  O   UNK d   1      13.715   1.117  -4.187  0.00  0.00    -0.647 OA
ATOM     14  O   UNK d   1      12.863  -0.535  -5.502  0.00  0.00    -0.647 OA
ENDBRANCH  11  12
ENDBRANCH  10  11
ENDBRANCH   9  10
ENDBRANCH   1   9
TORSDOF 6
ENDMDL
MODEL 7
REMARK VINA RESULT:      -3.8     42.890     43.980
REMARK  6 active torsions:
REMARK  status: ('A' for Active; 'I' for Inactive)
REMARK    1  A    between atoms: S_1  and  C_8 
REMARK    2  A    between atoms: S_1  and  C_10 
REMARK    3  A    between atoms: N_6  and  C_7 
REMARK    4  A    between atoms: C_7  and  C_9 
REMARK    5  A    between atoms: C_7  and  C_8 
REMARK    6  A    between atoms: C_10  and  C_11 
ROOT
ATOM      1  C   UNK d   1       7.234  28.759 -13.742  0.00  0.00     0.292 C 
ENDROOT
BRANCH   1   2
ATOM      2  N   UNK d   1       5.843  29.313 -13.573  0.00  0.00    -0.065 N 
ATOM      3  H   UNK d   1       5.094  28.630 -13.603  0.00  0.00     0.275 HD
ATOM      4  H   UNK d   1       5.604  30.039 -14.299  0.00  0.00     0.275 HD
ATOM      5  H   UNK d   1       5.873  29.815 -12.666  0.00  0.00     0.275 HD
ENDBRANCH   1   2
BRANCH   1   6
ATOM      6  C   UNK d   1       7.191  27.205 -13.807  0.00  0.00     0.205 C 
ATOM      7  O   UNK d   1       8.160  26.692 -13.155  0.00  0.00    -0.646 OA
ATOM      8  O   UNK d   1       6.238  26.670 -14.422  0.00  0.00    -0.646 OA
ENDBRANCH   1   6
BRANCH   1   9
ATOM      9  C   UNK d   1       8.154  29.207 -12.608  0.00  0.00     0.118 C 
BRANCH   9  10
ATOM     10  S   UNK d   1       7.216  29.882 -11.170  0.00  0.00    -0.156 SA
BRANCH  10  11
ATOM     11  C   UNK d   1       6.915  28.341 -10.217  0.00  0.00     0.186 C 
BRANCH  11  12
ATOM     12  C   UNK d   1       5.401  28.112 -10.198  0.00  0.00     0.182 C 
ATOM     13  O   UNK d   1       4.809  28.468  -9.128  0.00  0.00    -0.647 OA
ATOM     14  O   UNK d   1       4.899  27.578 -11.221  0.00  0.00    -0.647 OA
ENDBRANCH  11  12
ENDBRANCH  10  11
ENDBRANCH   9  10
ENDBRANCH   1   9
TORSDOF 6
ENDMDL
MODEL 8
REMARK VINA RESULT:      -3.8     27.343     28.183
REMARK  6 active torsions:
REMARK  status: ('A' for Active; 'I' for Inactive)
REMARK    1  A    between atoms: S_1  and  C_8 
REMARK    2  A    between atoms: S_1  and  C_10 
REMARK    3  A    between atoms: N_6  and  C_7 
REMARK    4  A    between atoms: C_7  and  C_9 
REMARK    5  A    between atoms: C_7  and  C_8 
REMARK    6  A    between atoms: C_10  and  C_11 
ROOT
ATOM      1  C   UNK d   1      18.205   6.239  -5.257  0.00  0.00     0.292 C 
ENDROOT
BRANCH   1   2
ATOM      2  N   UNK d   1      16.966   6.681  -4.524  0.00  0.00    -0.065 N 
ATOM      3  H   UNK d   1      16.668   6.076  -3.765  0.00  0.00     0.275 HD
ATOM      4  H   UNK d   1      16.132   6.783  -5.159  0.00  0.00     0.275 HD
ATOM      5  H   UNK d   1      17.190   7.638  -4.191  0.00  0.00     0.275 HD
ENDBRANCH   1   2
BRANCH   1   6
ATOM      6  C   UNK d   1      17.831   5.680  -6.660  0.00  0.00     0.205 C 
ATOM      7  O   UNK d   1      18.290   6.425  -7.588  0.00  0.00    -0.646 OA
ATOM      8  O   UNK d   1      17.193   4.602  -6.710  0.00  0.00    -0.646 OA
ENDBRANCH   1   6
BRANCH   1   9
ATOM      9  C   UNK d   1      18.975   5.184  -4.466  0.00  0.00     0.118 C 
BRANCH   9  10
ATOM     10  S   UNK d   1      20.488   5.875  -3.666  0.00  0.00    -0.156 SA
BRANCH  10  11
ATOM     11  C   UNK d   1      20.511   7.559  -4.399  0.00  0.00     0.186 C 
BRANCH  11  12
ATOM     12  C   UNK d   1      20.170   8.544  -3.275  0.00  0.00     0.182 C 
ATOM     13  O   UNK d   1      21.064   9.416  -3.025  0.00  0.00    -0.647 OA
ATOM     14  O   UNK d   1      19.062   8.381  -2.701  0.00  0.00    -0.647 OA
ENDBRANCH  11  12
ENDBRANCH  10  11
ENDBRANCH   9  10
ENDBRANCH   1   9
TORSDOF 6
ENDMDL
MODEL 9
REMARK VINA RESULT:      -3.8     25.386     26.808
REMARK  6 active torsions:
REMARK  status: ('A' for Active; 'I' for Inactive)
REMARK    1  A    between atoms: S_1  and  C_8 
REMARK    2  A    between atoms: S_1  and  C_10 
REMARK    3  A    between atoms: N_6  and  C_7 
REMARK    4  A    between atoms: C_7  and  C_9 
REMARK    5  A    between atoms: C_7  and  C_8 
REMARK    6  A    between atoms: C_10  and  C_11 
ROOT
ATOM      1  C   UNK d   1       9.914  16.661   3.193  0.00  0.00     0.292 C 
ENDROOT
BRANCH   1   2
ATOM      2  N   UNK d   1      10.818  17.865   3.152  0.00  0.00    -0.065 N 
ATOM      3  H   UNK d   1      10.349  18.764   3.175  0.00  0.00     0.275 HD
ATOM      4  H   UNK d   1      11.436  17.880   2.299  0.00  0.00     0.275 HD
ATOM      5  H   UNK d   1      11.454  17.739   3.963  0.00  0.00     0.275 HD
ENDBRANCH   1   2
BRANCH   1   6
ATOM      6  C   UNK d   1      10.498  15.518   2.315  0.00  0.00     0.205 C 
ATOM      7  O   UNK d   1       9.737  15.268   1.322  0.00  0.00    -0.646 OA
ATOM      8  O   UNK d   1      11.606  15.032   2.645  0.00  0.00    -0.646 OA
ENDBRANCH   1   6
BRANCH   1   9
ATOM      9  C   UNK d   1       8.502  17.008   2.725  0.00  0.00     0.118 C 
BRANCH   9  10
ATOM     10  S   UNK d   1       8.319  18.798   2.320  0.00  0.00    -0.156 SA
BRANCH  10  11
ATOM     11  C   UNK d   1       8.211  18.715   0.488  0.00  0.00     0.186 C 
BRANCH  11  12
ATOM     12  C   UNK d   1       9.566  19.171  -0.064  0.00  0.00     0.182 C 
ATOM     13  O   UNK d   1       9.535  20.222  -0.783  0.00  0.00    -0.647 OA
ATOM     14  O   UNK d   1      10.561  18.457   0.226  0.00  0.00    -0.647 OA
ENDBRANCH  11  12
ENDBRANCH  10  11
ENDBRANCH   9  10
ENDBRANCH   1   9
TORSDOF 6
ENDMDL
