MODEL 1
REMARK VINA RESULT:      -8.0      0.000      0.000
REMARK  8 active torsions:
REMARK  status: ('A' for Active; 'I' for Inactive)
REMARK    1  A    between atoms: S_1  and  N_7 
REMARK    2  A    between atoms: S_1  and  C_11 
REMARK    3  A    between atoms: O_4  and  C_22 
REMARK    4  A    between atoms: N_7  and  C_17 
REMARK    5  A    between atoms: N_8  and  N_10 
REMARK    6  A    between atoms: N_8  and  C_14 
REMARK    7  A    between atoms: N_10  and  C_18 
REMARK    8  A    between atoms: C_20  and  C_28 
ROOT
ATOM      1  C   LIG d   1       8.174  -0.555  20.485  0.00  0.00     0.075 A 
ATOM      2  C   LIG d   1       9.507  -0.959  20.486  0.00  0.00     0.027 A 
ATOM      3  C   LIG d   1       7.424  -0.575  21.660  0.00  0.00     0.027 A 
ATOM      4  C   LIG d   1       9.346  -1.484  22.874  0.00  0.00     0.079 A 
ATOM      5  C   LIG d   1      10.076  -1.424  21.676  0.00  0.00     0.035 A 
ATOM      6  C   LIG d   1       8.014  -1.047  22.834  0.00  0.00     0.035 A 
ENDROOT
BRANCH   4   7
ATOM      7  N   LIG d   1       9.821  -1.953  24.052  0.00  0.00    -0.150 NA
BRANCH   7   8
ATOM      8  N   LIG d   1      10.157  -3.397  24.077  0.00  0.00    -0.150 NA
BRANCH   8   9
ATOM      9  C   LIG d   1       9.281  -4.196  24.751  0.00  0.00     0.080 A 
ATOM     10  C   LIG d   1       8.187  -4.782  24.056  0.00  0.00     0.054 A 
ATOM     11  C   LIG d   1       7.223  -5.620  24.674  0.00  0.00     0.076 A 
ATOM     12  C   LIG d   1       7.376  -5.861  26.050  0.00  0.00     0.082 A 
ATOM     13  C   LIG d   1       8.426  -5.302  26.770  0.00  0.00     0.040 A 
ATOM     14  C   LIG d   1       9.359  -4.482  26.123  0.00  0.00     0.036 A 
BRANCH  11  15
ATOM     15  C   LIG d   1       6.071  -6.240  23.905  0.00  0.00     0.212 C 
ATOM     16  O   LIG d   1       5.672  -5.587  22.867  0.00  0.00    -0.644 OA
ATOM     17  O   LIG d   1       5.551  -7.343  24.276  0.00  0.00    -0.644 OA
ENDBRANCH  11  15
BRANCH  12  18
ATOM     18  O   LIG d   1       6.498  -6.662  26.750  0.00  0.00    -0.360 OA
ATOM     19  H   LIG d   1       5.942  -7.070  26.032  0.00  0.00     0.217 HD
ENDBRANCH  12  18
ENDBRANCH   8   9
ENDBRANCH   7   8
ENDBRANCH   4   7
BRANCH   1  20
ATOM     20  S   LIG d   1       7.410  -0.014  18.988  0.00  0.00     0.247 S 
ATOM     21  O   LIG d   1       6.356   0.930  19.317  0.00  0.00    -0.205 OA
ATOM     22  O   LIG d   1       8.419   0.357  18.013  0.00  0.00    -0.205 OA
BRANCH  20  23
ATOM     23  N   LIG d   1       6.602  -1.407  18.431  0.00  0.00    -0.165 NA
ATOM     24  H   LIG d   1       5.817  -1.574  19.063  0.00  0.00     0.147 HD
BRANCH  23  25
ATOM     25  C   LIG d   1       7.371  -2.591  18.446  0.00  0.00     0.116 C 
ATOM     26  N   LIG d   1       6.836  -3.509  19.264  0.00  0.00    -0.248 NA
ATOM     27  C   LIG d   1       7.562  -4.632  19.452  0.00  0.00     0.118 C 
ATOM     28  C   LIG d   1       8.733  -4.914  18.765  0.00  0.00     0.019 C 
ATOM     29  C   LIG d   1       9.201  -3.981  17.846  0.00  0.00     0.005 C 
ATOM     30  C   LIG d   1       8.508  -2.787  17.682  0.00  0.00     0.045 C 
ENDBRANCH  23  25
ENDBRANCH  20  23
ENDBRANCH   1  20
TORSDOF 8
ENDMDL
MODEL 2
REMARK VINA RESULT:      -7.9     28.265     30.231
REMARK  8 active torsions:
REMARK  status: ('A' for Active; 'I' for Inactive)
REMARK    1  A    between atoms: S_1  and  N_7 
REMARK    2  A    between atoms: S_1  and  C_11 
REMARK    3  A    between atoms: O_4  and  C_22 
REMARK    4  A    between atoms: N_7  and  C_17 
REMARK    5  A    between atoms: N_8  and  N_10 
REMARK    6  A    between atoms: N_8  and  C_14 
REMARK    7  A    between atoms: N_10  and  C_18 
REMARK    8  A    between atoms: C_20  and  C_28 
ROOT
ATOM      1  C   LIG d   1      20.119   5.399  -4.642  0.00  0.00     0.075 A 
ATOM      2  C   LIG d   1      18.831   5.839  -4.345  0.00  0.00     0.027 A 
ATOM      3  C   LIG d   1      20.318   4.259  -5.419  0.00  0.00     0.027 A 
ATOM      4  C   LIG d   1      17.896   3.933  -5.567  0.00  0.00     0.079 A 
ATOM      5  C   LIG d   1      17.736   5.101  -4.804  0.00  0.00     0.035 A 
ATOM      6  C   LIG d   1      19.209   3.537  -5.863  0.00  0.00     0.035 A 
ENDROOT
BRANCH   4   7
ATOM      7  N   LIG d   1      16.885   3.152  -6.016  0.00  0.00    -0.150 NA
BRANCH   7   8
ATOM      8  N   LIG d   1      17.107   1.690  -5.899  0.00  0.00    -0.150 NA
BRANCH   8   9
ATOM      9  C   LIG d   1      15.980   0.928  -5.799  0.00  0.00     0.080 A 
ATOM     10  C   LIG d   1      15.757  -0.121  -6.733  0.00  0.00     0.054 A 
ATOM     11  C   LIG d   1      14.613  -0.961  -6.711  0.00  0.00     0.076 A 
ATOM     12  C   LIG d   1      13.660  -0.714  -5.707  0.00  0.00     0.082 A 
ATOM     13  C   LIG d   1      13.834   0.307  -4.780  0.00  0.00     0.040 A 
ATOM     14  C   LIG d   1      14.979   1.112  -4.832  0.00  0.00     0.036 A 
BRANCH  11  15
ATOM     15  C   LIG d   1      14.405  -2.081  -7.714  0.00  0.00     0.212 C 
ATOM     16  O   LIG d   1      15.255  -3.049  -7.657  0.00  0.00    -0.644 OA
ATOM     17  O   LIG d   1      13.439  -2.048  -8.545  0.00  0.00    -0.644 OA
ENDBRANCH  11  15
BRANCH  12  18
ATOM     18  O   LIG d   1      12.512  -1.471  -5.593  0.00  0.00    -0.360 OA
ATOM     19  H   LIG d   1      12.215  -1.293  -4.661  0.00  0.00     0.217 HD
ENDBRANCH  12  18
ENDBRANCH   8   9
ENDBRANCH   7   8
ENDBRANCH   4   7
BRANCH   1  20
ATOM     20  S   LIG d   1      21.522   6.279  -4.031  0.00  0.00     0.247 S 
ATOM     21  O   LIG d   1      22.533   5.319  -3.622  0.00  0.00    -0.205 OA
ATOM     22  O   LIG d   1      21.884   7.347  -4.946  0.00  0.00    -0.205 OA
BRANCH  20  23
ATOM     23  N   LIG d   1      20.954   6.972  -2.582  0.00  0.00    -0.165 NA
ATOM     24  H   LIG d   1      19.994   6.651  -2.450  0.00  0.00     0.147 HD
BRANCH  23  25
ATOM     25  C   LIG d   1      20.895   8.384  -2.577  0.00  0.00     0.116 C 
ATOM     26  N   LIG d   1      22.049   8.916  -2.150  0.00  0.00    -0.248 NA
ATOM     27  C   LIG d   1      22.058  10.256  -1.983  0.00  0.00     0.118 C 
ATOM     28  C   LIG d   1      21.003  11.083  -2.339  0.00  0.00     0.019 C 
ATOM     29  C   LIG d   1      19.860  10.499  -2.877  0.00  0.00     0.005 C 
ATOM     30  C   LIG d   1      19.800   9.116  -2.998  0.00  0.00     0.045 C 
ENDBRANCH  23  25
ENDBRANCH  20  23
ENDBRANCH   1  20
TORSDOF 8
ENDMDL
MODEL 3
REMARK VINA RESULT:      -7.5     28.945     31.430
REMARK  8 active torsions:
REMARK  status: ('A' for Active; 'I' for Inactive)
REMARK    1  A    between atoms: S_1  and  N_7 
REMARK    2  A    between atoms: S_1  and  C_11 
REMARK    3  A    between atoms: O_4  and  C_22 
REMARK    4  A    between atoms: N_7  and  C_17 
REMARK    5  A    between atoms: N_8  and  N_10 
REMARK    6  A    between atoms: N_8  and  C_14 
REMARK    7  A    between atoms: N_10  and  C_18 
REMARK    8  A    between atoms: C_20  and  C_28 
ROOT
ATOM      1  C   LIG d   1      14.523  -1.504  -6.703  0.00  0.00     0.075 A 
ATOM      2  C   LIG d   1      13.788  -0.598  -5.942  0.00  0.00     0.027 A 
ATOM      3  C   LIG d   1      15.854  -1.244  -7.028  0.00  0.00     0.027 A 
ATOM      4  C   LIG d   1      15.718   0.910  -5.871  0.00  0.00     0.079 A 
ATOM      5  C   LIG d   1      14.389   0.599  -5.541  0.00  0.00     0.035 A 
ATOM      6  C   LIG d   1      16.430  -0.040  -6.618  0.00  0.00     0.035 A 
ENDROOT
BRANCH   4   7
ATOM      7  N   LIG d   1      16.352   2.061  -5.545  0.00  0.00    -0.150 NA
BRANCH   7   8
ATOM      8  N   LIG d   1      17.765   2.158  -5.984  0.00  0.00    -0.150 NA
BRANCH   8   9
ATOM      9  C   LIG d   1      18.236   3.422  -6.185  0.00  0.00     0.080 A 
ATOM     10  C   LIG d   1      19.612   3.703  -5.963  0.00  0.00     0.054 A 
ATOM     11  C   LIG d   1      20.190   4.987  -6.140  0.00  0.00     0.076 A 
ATOM     12  C   LIG d   1      19.331   6.021  -6.549  0.00  0.00     0.082 A 
ATOM     13  C   LIG d   1      17.978   5.793  -6.769  0.00  0.00     0.040 A 
ATOM     14  C   LIG d   1      17.446   4.511  -6.587  0.00  0.00     0.036 A 
BRANCH  11  15
ATOM     15  C   LIG d   1      21.665   5.256  -5.906  0.00  0.00     0.212 C 
ATOM     16  O   LIG d   1      22.447   4.236  -6.021  0.00  0.00    -0.644 OA
ATOM     17  O   LIG d   1      22.083   6.426  -5.622  0.00  0.00    -0.644 OA
ENDBRANCH  11  15
BRANCH  12  18
ATOM     18  O   LIG d   1      19.788   7.307  -6.753  0.00  0.00    -0.360 OA
ATOM     19  H   LIG d   1      18.978   7.787  -7.077  0.00  0.00     0.217 HD
ENDBRANCH  12  18
ENDBRANCH   8   9
ENDBRANCH   7   8
ENDBRANCH   4   7
BRANCH   1  20
ATOM     20  S   LIG d   1      13.777  -3.000  -7.271  0.00  0.00     0.247 S 
ATOM     21  O   LIG d   1      14.803  -4.025  -7.369  0.00  0.00    -0.205 OA
ATOM     22  O   LIG d   1      12.566  -3.276  -6.520  0.00  0.00    -0.205 OA
BRANCH  20  23
ATOM     23  N   LIG d   1      13.351  -2.642  -8.881  0.00  0.00    -0.165 NA
ATOM     24  H   LIG d   1      12.550  -2.010  -8.848  0.00  0.00     0.147 HD
BRANCH  23  25
ATOM     25  C   LIG d   1      12.939  -3.751  -9.652  0.00  0.00     0.116 C 
ATOM     26  N   LIG d   1      11.618  -3.955  -9.544  0.00  0.00    -0.248 NA
ATOM     27  C   LIG d   1      11.140  -5.069 -10.138  0.00  0.00     0.118 C 
ATOM     28  C   LIG d   1      11.909  -5.911 -10.927  0.00  0.00     0.019 C 
ATOM     29  C   LIG d   1      13.255  -5.607 -11.100  0.00  0.00     0.005 C 
ATOM     30  C   LIG d   1      13.788  -4.502 -10.445  0.00  0.00     0.045 C 
ENDBRANCH  23  25
ENDBRANCH  20  23
ENDBRANCH   1  20
TORSDOF 8
ENDMDL
MODEL 4
REMARK VINA RESULT:      -7.1     28.571     30.380
REMARK  8 active torsions:
REMARK  status: ('A' for Active; 'I' for Inactive)
REMARK    1  A    between atoms: S_1  and  N_7 
REMARK    2  A    between atoms: S_1  and  C_11 
REMARK    3  A    between atoms: O_4  and  C_22 
REMARK    4  A    between atoms: N_7  and  C_17 
REMARK    5  A    between atoms: N_8  and  N_10 
REMARK    6  A    between atoms: N_8  and  C_14 
REMARK    7  A    between atoms: N_10  and  C_18 
REMARK    8  A    between atoms: C_20  and  C_28 
ROOT
ATOM      1  C   LIG d   1      20.593   5.205  -4.556  0.00  0.00     0.075 A 
ATOM      2  C   LIG d   1      20.958   3.896  -4.861  0.00  0.00     0.027 A 
ATOM      3  C   LIG d   1      19.277   5.633  -4.724  0.00  0.00     0.027 A 
ATOM      4  C   LIG d   1      18.666   3.424  -5.585  0.00  0.00     0.079 A 
ATOM      5  C   LIG d   1      19.995   3.023  -5.376  0.00  0.00     0.035 A 
ATOM      6  C   LIG d   1      18.335   4.743  -5.243  0.00  0.00     0.035 A 
ENDROOT
BRANCH   4   7
ATOM      7  N   LIG d   1      17.692   2.644  -6.109  0.00  0.00    -0.150 NA
BRANCH   7   8
ATOM      8  N   LIG d   1      18.076   1.237  -6.381  0.00  0.00    -0.150 NA
BRANCH   8   9
ATOM      9  C   LIG d   1      17.048   0.391  -6.678  0.00  0.00     0.080 A 
ATOM     10  C   LIG d   1      15.809   0.522  -5.992  0.00  0.00     0.054 A 
ATOM     11  C   LIG d   1      14.688  -0.315  -6.229  0.00  0.00     0.076 A 
ATOM     12  C   LIG d   1      14.841  -1.327  -7.192  0.00  0.00     0.082 A 
ATOM     13  C   LIG d   1      16.037  -1.497  -7.880  0.00  0.00     0.040 A 
ATOM     14  C   LIG d   1      17.120  -0.647  -7.620  0.00  0.00     0.036 A 
BRANCH  11  15
ATOM     15  C   LIG d   1      13.374  -0.146  -5.489  0.00  0.00     0.212 C 
ATOM     16  O   LIG d   1      13.279   0.906  -4.748  0.00  0.00    -0.644 OA
ATOM     17  O   LIG d   1      12.434  -0.997  -5.615  0.00  0.00    -0.644 OA
ENDBRANCH  11  15
BRANCH  12  18
ATOM     18  O   LIG d   1      13.816  -2.196  -7.502  0.00  0.00    -0.360 OA
ATOM     19  H   LIG d   1      13.000  -1.640  -7.374  0.00  0.00     0.217 HD
ENDBRANCH  12  18
ENDBRANCH   8   9
ENDBRANCH   7   8
ENDBRANCH   4   7
BRANCH   1  20
ATOM     20  S   LIG d   1      21.798   6.347  -3.954  0.00  0.00     0.247 S 
ATOM     21  O   LIG d   1      22.951   5.602  -3.480  0.00  0.00    -0.205 OA
ATOM     22  O   LIG d   1      21.990   7.425  -4.906  0.00  0.00    -0.205 OA
BRANCH  20  23
ATOM     23  N   LIG d   1      21.071   6.983  -2.550  0.00  0.00    -0.165 NA
ATOM     24  H   LIG d   1      20.066   6.822  -2.631  0.00  0.00     0.147 HD
BRANCH  23  25
ATOM     25  C   LIG d   1      21.229   8.375  -2.373  0.00  0.00     0.116 C 
ATOM     26  N   LIG d   1      20.090   9.031  -2.639  0.00  0.00    -0.248 NA
ATOM     27  C   LIG d   1      20.165  10.379  -2.626  0.00  0.00     0.118 C 
ATOM     28  C   LIG d   1      21.298  11.083  -2.244  0.00  0.00     0.019 C 
ATOM     29  C   LIG d   1      22.429  10.363  -1.874  0.00  0.00     0.005 C 
ATOM     30  C   LIG d   1      22.399   8.974  -1.942  0.00  0.00     0.045 C 
ENDBRANCH  23  25
ENDBRANCH  20  23
ENDBRANCH   1  20
TORSDOF 8
ENDMDL
MODEL 5
REMARK VINA RESULT:      -7.0      3.112      7.003
REMARK  8 active torsions:
REMARK  status: ('A' for Active; 'I' for Inactive)
REMARK    1  A    between atoms: S_1  and  N_7 
REMARK    2  A    between atoms: S_1  and  C_11 
REMARK    3  A    between atoms: O_4  and  C_22 
REMARK    4  A    between atoms: N_7  and  C_17 
REMARK    5  A    between atoms: N_8  and  N_10 
REMARK    6  A    between atoms: N_8  and  C_14 
REMARK    7  A    between atoms: N_10  and  C_18 
REMARK    8  A    between atoms: C_20  and  C_28 
ROOT
ATOM      1  C   LIG d   1       7.468  -4.470  25.021  0.00  0.00     0.075 A 
ATOM      2  C   LIG d   1       8.689  -4.888  24.497  0.00  0.00     0.027 A 
ATOM      3  C   LIG d   1       7.157  -3.114  25.105  0.00  0.00     0.027 A 
ATOM      4  C   LIG d   1       9.356  -2.551  24.184  0.00  0.00     0.079 A 
ATOM      5  C   LIG d   1       9.620  -3.927  24.091  0.00  0.00     0.035 A 
ATOM      6  C   LIG d   1       8.105  -2.173  24.696  0.00  0.00     0.035 A 
ENDROOT
BRANCH   4   7
ATOM      7  N   LIG d   1      10.220  -1.568  23.842  0.00  0.00    -0.150 NA
BRANCH   7   8
ATOM      8  N   LIG d   1      10.721  -1.614  22.447  0.00  0.00    -0.150 NA
BRANCH   8   9
ATOM      9  C   LIG d   1       9.873  -1.123  21.497  0.00  0.00     0.080 A 
ATOM     10  C   LIG d   1       9.302  -2.008  20.542  0.00  0.00     0.054 A 
ATOM     11  C   LIG d   1       8.415  -1.588  19.516  0.00  0.00     0.076 A 
ATOM     12  C   LIG d   1       8.111  -0.217  19.458  0.00  0.00     0.082 A 
ATOM     13  C   LIG d   1       8.655   0.684  20.366  0.00  0.00     0.040 A 
ATOM     14  C   LIG d   1       9.523   0.230  21.367  0.00  0.00     0.036 A 
BRANCH  11  15
ATOM     15  C   LIG d   1       7.811  -2.556  18.515  0.00  0.00     0.212 C 
ATOM     16  O   LIG d   1       8.652  -3.207  17.786  0.00  0.00    -0.644 OA
ATOM     17  O   LIG d   1       6.549  -2.705  18.425  0.00  0.00    -0.644 OA
ENDBRANCH  11  15
BRANCH  12  18
ATOM     18  O   LIG d   1       7.261   0.299  18.503  0.00  0.00    -0.360 OA
ATOM     19  H   LIG d   1       6.768   1.009  18.996  0.00  0.00     0.217 HD
ENDBRANCH  12  18
ENDBRANCH   8   9
ENDBRANCH   7   8
ENDBRANCH   4   7
BRANCH   1  20
ATOM     20  S   LIG d   1       6.292  -5.657  25.592  0.00  0.00     0.247 S 
ATOM     21  O   LIG d   1       6.945  -6.539  26.544  0.00  0.00    -0.205 OA
ATOM     22  O   LIG d   1       5.053  -5.000  25.964  0.00  0.00    -0.205 OA
BRANCH  20  23
ATOM     23  N   LIG d   1       6.006  -6.622  24.217  0.00  0.00    -0.165 NA
ATOM     24  H   LIG d   1       6.441  -6.151  23.422  0.00  0.00     0.147 HD
BRANCH  23  25
ATOM     25  C   LIG d   1       4.646  -6.786  23.874  0.00  0.00     0.116 C 
ATOM     26  N   LIG d   1       4.131  -7.886  24.442  0.00  0.00    -0.248 NA
ATOM     27  C   LIG d   1       2.872  -8.208  24.076  0.00  0.00     0.118 C 
ATOM     28  C   LIG d   1       2.079  -7.411  23.264  0.00  0.00     0.019 C 
ATOM     29  C   LIG d   1       2.615  -6.223  22.779  0.00  0.00     0.005 C 
ATOM     30  C   LIG d   1       3.932  -5.900  23.087  0.00  0.00     0.045 C 
ENDBRANCH  23  25
ENDBRANCH  20  23
ENDBRANCH   1  20
TORSDOF 8
ENDMDL
MODEL 6
REMARK VINA RESULT:      -7.0     28.875     30.507
REMARK  8 active torsions:
REMARK  status: ('A' for Active; 'I' for Inactive)
REMARK    1  A    between atoms: S_1  and  N_7 
REMARK    2  A    between atoms: S_1  and  C_11 
REMARK    3  A    between atoms: O_4  and  C_22 
REMARK    4  A    between atoms: N_7  and  C_17 
REMARK    5  A    between atoms: N_8  and  N_10 
REMARK    6  A    between atoms: N_8  and  C_14 
REMARK    7  A    between atoms: N_10  and  C_18 
REMARK    8  A    between atoms: C_20  and  C_28 
ROOT
ATOM      1  C   LIG d   1      21.825   5.205  -4.347  0.00  0.00     0.075 A 
ATOM      2  C   LIG d   1      20.920   5.489  -5.367  0.00  0.00     0.027 A 
ATOM      3  C   LIG d   1      21.985   3.900  -3.883  0.00  0.00     0.027 A 
ATOM      4  C   LIG d   1      20.256   3.132  -5.436  0.00  0.00     0.079 A 
ATOM      5  C   LIG d   1      20.143   4.454  -5.896  0.00  0.00     0.035 A 
ATOM      6  C   LIG d   1      21.195   2.885  -4.424  0.00  0.00     0.035 A 
ENDROOT
BRANCH   4   7
ATOM      7  N   LIG d   1      19.515   2.089  -5.877  0.00  0.00    -0.150 NA
BRANCH   7   8
ATOM      8  N   LIG d   1      18.051   2.323  -5.934  0.00  0.00    -0.150 NA
BRANCH   8   9
ATOM      9  C   LIG d   1      17.292   1.244  -6.279  0.00  0.00     0.080 A 
ATOM     10  C   LIG d   1      15.931   1.182  -5.869  0.00  0.00     0.054 A 
ATOM     11  C   LIG d   1      15.068   0.098  -6.176  0.00  0.00     0.076 A 
ATOM     12  C   LIG d   1      15.616  -0.962  -6.918  0.00  0.00     0.082 A 
ATOM     13  C   LIG d   1      16.943  -0.948  -7.331  0.00  0.00     0.040 A 
ATOM     14  C   LIG d   1      17.762   0.142  -7.011  0.00  0.00     0.036 A 
BRANCH  11  15
ATOM     15  C   LIG d   1      13.616   0.064  -5.735  0.00  0.00     0.212 C 
ATOM     16  O   LIG d   1      13.007  -1.061  -5.899  0.00  0.00    -0.644 OA
ATOM     17  O   LIG d   1      13.058   1.092  -5.230  0.00  0.00    -0.644 OA
ENDBRANCH  11  15
BRANCH  12  18
ATOM     18  O   LIG d   1      14.866  -2.065  -7.272  0.00  0.00    -0.360 OA
ATOM     19  H   LIG d   1      15.119  -2.741  -6.588  0.00  0.00     0.217 HD
ENDBRANCH  12  18
ENDBRANCH   8   9
ENDBRANCH   7   8
ENDBRANCH   4   7
BRANCH   1  20
ATOM     20  S   LIG d   1      22.783   6.499  -3.622  0.00  0.00     0.247 S 
ATOM     21  O   LIG d   1      23.964   5.916  -3.007  0.00  0.00    -0.205 OA
ATOM     22  O   LIG d   1      22.936   7.597  -4.558  0.00  0.00    -0.205 OA
BRANCH  20  23
ATOM     23  N   LIG d   1      21.816   7.023  -2.321  0.00  0.00    -0.165 NA
ATOM     24  H   LIG d   1      21.000   6.410  -2.284  0.00  0.00     0.147 HD
BRANCH  23  25
ATOM     25  C   LIG d   1      21.311   8.337  -2.442  0.00  0.00     0.116 C 
ATOM     26  N   LIG d   1      22.167   9.236  -1.936  0.00  0.00    -0.248 NA
ATOM     27  C   LIG d   1      21.726  10.511  -1.884  0.00  0.00     0.118 C 
ATOM     28  C   LIG d   1      20.520  10.930  -2.424  0.00  0.00     0.019 C 
ATOM     29  C   LIG d   1      19.705   9.982  -3.035  0.00  0.00     0.005 C 
ATOM     30  C   LIG d   1      20.106   8.651  -3.044  0.00  0.00     0.045 C 
ENDBRANCH  23  25
ENDBRANCH  20  23
ENDBRANCH   1  20
TORSDOF 8
ENDMDL
MODEL 7
REMARK VINA RESULT:      -7.0     29.980     32.190
REMARK  8 active torsions:
REMARK  status: ('A' for Active; 'I' for Inactive)
REMARK    1  A    between atoms: S_1  and  N_7 
REMARK    2  A    between atoms: S_1  and  C_11 
REMARK    3  A    between atoms: O_4  and  C_22 
REMARK    4  A    between atoms: N_7  and  C_17 
REMARK    5  A    between atoms: N_8  and  N_10 
REMARK    6  A    between atoms: N_8  and  C_14 
REMARK    7  A    between atoms: N_10  and  C_18 
REMARK    8  A    between atoms: C_20  and  C_28 
ROOT
ATOM      1  C   LIG d   1      14.697  -1.896  -8.184  0.00  0.00     0.075 A 
ATOM      2  C   LIG d   1      14.280  -1.076  -7.139  0.00  0.00     0.027 A 
ATOM      3  C   LIG d   1      16.030  -1.903  -8.593  0.00  0.00     0.027 A 
ATOM      4  C   LIG d   1      16.553  -0.186  -6.927  0.00  0.00     0.079 A 
ATOM      5  C   LIG d   1      15.208  -0.227  -6.527  0.00  0.00     0.035 A 
ATOM      6  C   LIG d   1      16.937  -1.045  -7.968  0.00  0.00     0.035 A 
ENDROOT
BRANCH   4   7
ATOM      7  N   LIG d   1      17.496   0.632  -6.403  0.00  0.00    -0.150 NA
BRANCH   7   8
ATOM      8  N   LIG d   1      16.988   1.886  -5.795  0.00  0.00    -0.150 NA
BRANCH   8   9
ATOM      9  C   LIG d   1      17.773   2.988  -5.970  0.00  0.00     0.080 A 
ATOM     10  C   LIG d   1      19.171   2.900  -5.725  0.00  0.00     0.054 A 
ATOM     11  C   LIG d   1      20.064   3.993  -5.874  0.00  0.00     0.076 A 
ATOM     12  C   LIG d   1      19.509   5.219  -6.276  0.00  0.00     0.082 A 
ATOM     13  C   LIG d   1      18.146   5.352  -6.518  0.00  0.00     0.040 A 
ATOM     14  C   LIG d   1      17.298   4.249  -6.364  0.00  0.00     0.036 A 
BRANCH  11  15
ATOM     15  C   LIG d   1      21.554   3.868  -5.616  0.00  0.00     0.212 C 
ATOM     16  O   LIG d   1      21.886   3.364  -4.476  0.00  0.00    -0.644 OA
ATOM     17  O   LIG d   1      22.406   4.236  -6.489  0.00  0.00    -0.644 OA
ENDBRANCH  11  15
BRANCH  12  18
ATOM     18  O   LIG d   1      20.285   6.345  -6.453  0.00  0.00    -0.360 OA
ATOM     19  H   LIG d   1      21.161   6.081  -6.062  0.00  0.00     0.217 HD
ENDBRANCH  12  18
ENDBRANCH   8   9
ENDBRANCH   7   8
ENDBRANCH   4   7
BRANCH   1  20
ATOM     20  S   LIG d   1      13.539  -2.939  -9.013  0.00  0.00     0.247 S 
ATOM     21  O   LIG d   1      14.258  -3.771  -9.963  0.00  0.00    -0.205 OA
ATOM     22  O   LIG d   1      12.647  -3.563  -8.054  0.00  0.00    -0.205 OA
BRANCH  20  23
ATOM     23  N   LIG d   1      12.639  -1.851  -9.967  0.00  0.00    -0.165 NA
ATOM     24  H   LIG d   1      11.687  -1.843  -9.598  0.00  0.00     0.147 HD
BRANCH  23  25
ATOM     25  C   LIG d   1      12.526  -2.202 -11.330  0.00  0.00     0.116 C 
ATOM     26  N   LIG d   1      13.433  -1.555 -12.076  0.00  0.00    -0.248 NA
ATOM     27  C   LIG d   1      13.329  -1.719 -13.412  0.00  0.00     0.118 C 
ATOM     28  C   LIG d   1      12.434  -2.593 -14.012  0.00  0.00     0.019 C 
ATOM     29  C   LIG d   1      11.580  -3.326 -13.195  0.00  0.00     0.005 C 
ATOM     30  C   LIG d   1      11.621  -3.127 -11.820  0.00  0.00     0.045 C 
ENDBRANCH  23  25
ENDBRANCH  20  23
ENDBRANCH   1  20
TORSDOF 8
ENDMDL
MODEL 8
REMARK VINA RESULT:      -6.8     29.071     30.322
REMARK  8 active torsions:
REMARK  status: ('A' for Active; 'I' for Inactive)
REMARK    1  A    between atoms: S_1  and  N_7 
REMARK    2  A    between atoms: S_1  and  C_11 
REMARK    3  A    between atoms: O_4  and  C_22 
REMARK    4  A    between atoms: N_7  and  C_17 
REMARK    5  A    between atoms: N_8  and  N_10 
REMARK    6  A    between atoms: N_8  and  C_14 
REMARK    7  A    between atoms: N_10  and  C_18 
REMARK    8  A    between atoms: C_20  and  C_28 
ROOT
ATOM      1  C   LIG d   1      19.810   8.040  -3.650  0.00  0.00     0.075 A 
ATOM      2  C   LIG d   1      18.488   7.603  -3.631  0.00  0.00     0.027 A 
ATOM      3  C   LIG d   1      20.769   7.368  -4.407  0.00  0.00     0.027 A 
ATOM      4  C   LIG d   1      19.081   5.736  -5.102  0.00  0.00     0.079 A 
ATOM      5  C   LIG d   1      18.139   6.455  -4.350  0.00  0.00     0.035 A 
ATOM      6  C   LIG d   1      20.397   6.223  -5.114  0.00  0.00     0.035 A 
ENDROOT
BRANCH   4   7
ATOM      7  N   LIG d   1      18.822   4.602  -5.794  0.00  0.00    -0.150 NA
BRANCH   7   8
ATOM      8  N   LIG d   1      17.538   3.934  -5.469  0.00  0.00    -0.150 NA
BRANCH   8   9
ATOM      9  C   LIG d   1      17.416   2.645  -5.900  0.00  0.00     0.080 A 
ATOM     10  C   LIG d   1      16.147   2.004  -5.846  0.00  0.00     0.054 A 
ATOM     11  C   LIG d   1      15.926   0.667  -6.266  0.00  0.00     0.076 A 
ATOM     12  C   LIG d   1      17.039  -0.042  -6.748  0.00  0.00     0.082 A 
ATOM     13  C   LIG d   1      18.299   0.543  -6.810  0.00  0.00     0.040 A 
ATOM     14  C   LIG d   1      18.476   1.867  -6.389  0.00  0.00     0.036 A 
BRANCH  11  15
ATOM     15  C   LIG d   1      14.559   0.011  -6.207  0.00  0.00     0.212 C 
ATOM     16  O   LIG d   1      14.529  -1.181  -5.715  0.00  0.00    -0.644 OA
ATOM     17  O   LIG d   1      13.518   0.622  -6.615  0.00  0.00    -0.644 OA
ENDBRANCH  11  15
BRANCH  12  18
ATOM     18  O   LIG d   1      16.937  -1.347  -7.183  0.00  0.00    -0.360 OA
ATOM     19  H   LIG d   1      17.430  -1.859  -6.486  0.00  0.00     0.217 HD
ENDBRANCH  12  18
ENDBRANCH   8   9
ENDBRANCH   7   8
ENDBRANCH   4   7
BRANCH   1  20
ATOM     20  S   LIG d   1      20.294   9.453  -2.710  0.00  0.00     0.247 S 
ATOM     21  O   LIG d   1      19.842  10.649  -3.401  0.00  0.00    -0.205 OA
ATOM     22  O   LIG d   1      19.955   9.269  -1.312  0.00  0.00    -0.205 OA
BRANCH  20  23
ATOM     23  N   LIG d   1      21.991   9.466  -2.862  0.00  0.00    -0.165 NA
ATOM     24  H   LIG d   1      22.250   8.659  -3.431  0.00  0.00     0.147 HD
BRANCH  23  25
ATOM     25  C   LIG d   1      22.701   9.329  -1.648  0.00  0.00     0.116 C 
ATOM     26  N   LIG d   1      23.089   8.060  -1.453  0.00  0.00    -0.248 NA
ATOM     27  C   LIG d   1      23.664   7.793  -0.261  0.00  0.00     0.118 C 
ATOM     28  C   LIG d   1      23.967   8.763   0.682  0.00  0.00     0.019 C 
ATOM     29  C   LIG d   1      23.642  10.086   0.396  0.00  0.00     0.005 C 
ATOM     30  C   LIG d   1      22.990  10.379  -0.796  0.00  0.00     0.045 C 
ENDBRANCH  23  25
ENDBRANCH  20  23
ENDBRANCH   1  20
TORSDOF 8
ENDMDL
MODEL 9
REMARK VINA RESULT:      -6.7     30.304     32.321
REMARK  8 active torsions:
REMARK  status: ('A' for Active; 'I' for Inactive)
REMARK    1  A    between atoms: S_1  and  N_7 
REMARK    2  A    between atoms: S_1  and  C_11 
REMARK    3  A    between atoms: O_4  and  C_22 
REMARK    4  A    between atoms: N_7  and  C_17 
REMARK    5  A    between atoms: N_8  and  N_10 
REMARK    6  A    between atoms: N_8  and  C_14 
REMARK    7  A    between atoms: N_10  and  C_18 
REMARK    8  A    between atoms: C_20  and  C_28 
ROOT
ATOM      1  C   LIG d   1      14.556  -2.787  -8.927  0.00  0.00     0.075 A 
ATOM      2  C   LIG d   1      14.268  -1.952  -7.849  0.00  0.00     0.027 A 
ATOM      3  C   LIG d   1      15.845  -2.847  -9.453  0.00  0.00     0.027 A 
ATOM      4  C   LIG d   1      16.585  -1.156  -7.845  0.00  0.00     0.079 A 
ATOM      5  C   LIG d   1      15.281  -1.144  -7.325  0.00  0.00     0.035 A 
ATOM      6  C   LIG d   1      16.838  -2.027  -8.914  0.00  0.00     0.035 A 
ENDROOT
BRANCH   4   7
ATOM      7  N   LIG d   1      17.604  -0.378  -7.409  0.00  0.00    -0.150 NA
BRANCH   7   8
ATOM      8  N   LIG d   1      17.241   0.641  -6.395  0.00  0.00    -0.150 NA
BRANCH   8   9
ATOM      9  C   LIG d   1      18.065   1.726  -6.325  0.00  0.00     0.080 A 
ATOM     10  C   LIG d   1      17.523   3.000  -6.003  0.00  0.00     0.054 A 
ATOM     11  C   LIG d   1      18.300   4.185  -5.914  0.00  0.00     0.076 A 
ATOM     12  C   LIG d   1      19.676   4.064  -6.173  0.00  0.00     0.082 A 
ATOM     13  C   LIG d   1      20.247   2.839  -6.500  0.00  0.00     0.040 A 
ATOM     14  C   LIG d   1      19.446   1.692  -6.574  0.00  0.00     0.036 A 
BRANCH  11  15
ATOM     15  C   LIG d   1      17.697   5.530  -5.558  0.00  0.00     0.212 C 
ATOM     16  O   LIG d   1      17.772   6.439  -6.470  0.00  0.00    -0.644 OA
ATOM     17  O   LIG d   1      17.147   5.725  -4.424  0.00  0.00    -0.644 OA
ENDBRANCH  11  15
BRANCH  12  18
ATOM     18  O   LIG d   1      20.525   5.150  -6.113  0.00  0.00    -0.360 OA
ATOM     19  H   LIG d   1      19.901   5.922  -6.048  0.00  0.00     0.217 HD
ENDBRANCH  12  18
ENDBRANCH   8   9
ENDBRANCH   7   8
ENDBRANCH   4   7
BRANCH   1  20
ATOM     20  S   LIG d   1      13.286  -3.781  -9.646  0.00  0.00     0.247 S 
ATOM     21  O   LIG d   1      13.811  -4.410 -10.846  0.00  0.00    -0.205 OA
ATOM     22  O   LIG d   1      12.653  -4.601  -8.631  0.00  0.00    -0.205 OA
BRANCH  20  23
ATOM     23  N   LIG d   1      12.156  -2.634 -10.203  0.00  0.00    -0.165 NA
ATOM     24  H   LIG d   1      11.240  -3.086 -10.198  0.00  0.00     0.147 HD
BRANCH  23  25
ATOM     25  C   LIG d   1      12.361  -2.186 -11.527  0.00  0.00     0.116 C 
ATOM     26  N   LIG d   1      11.523  -2.792 -12.380  0.00  0.00    -0.248 NA
ATOM     27  C   LIG d   1      11.721  -2.532 -13.690  0.00  0.00     0.118 C 
ATOM     28  C   LIG d   1      12.640  -1.607 -14.161  0.00  0.00     0.019 C 
ATOM     29  C   LIG d   1      13.420  -0.921 -13.235  0.00  0.00     0.005 C 
ATOM     30  C   LIG d   1      13.282  -1.217 -11.883  0.00  0.00     0.045 C 
ENDBRANCH  23  25
ENDBRANCH  20  23
ENDBRANCH   1  20
TORSDOF 8
ENDMDL
