MODEL 1
REMARK VINA RESULT:      -7.0      0.000      0.000
REMARK  13 active torsions:
REMARK  status: ('A' for Active; 'I' for Inactive)
REMARK    1  A    between atoms: S_2  and  C_10 
REMARK    2  A    between atoms: S_2  and  C_13 
REMARK    3  A    between atoms: O_5  and  C_23 
REMARK    4  A    between atoms: C_7  and  C_10 
REMARK    5  A    between atoms: C_7  and  C_11 
REMARK    6  A    between atoms: C_11  and  C_12 
REMARK    7  A    between atoms: C_13  and  C_15 
REMARK    8  A    between atoms: C_13  and  C_14 
REMARK    9  A    between atoms: C_14  and  C_16 
REMARK   10  A    between atoms: C_16  and  C_19 
REMARK   11  A    between atoms: C_20  and  C_23 
REMARK   12  A    between atoms: C_21  and  C_28 
REMARK   13  A    between atoms: C_32  and  C_33 
ROOT
ATOM      1  C   LIG d   1       8.052  18.439   1.097  0.00  0.00     0.080 C 
ENDROOT
BRANCH   1   2
ATOM      2  S   LIG d   1       9.519  17.788   1.995  0.00  0.00    -0.159 SA
BRANCH   2   3
ATOM      3  C   LIG d   1       9.301  16.012   1.640  0.00  0.00     0.084 C 
BRANCH   3   4
ATOM      4  C   LIG d   1       8.751  15.303   2.862  0.00  0.00    -0.022 A 
ATOM      5  C   LIG d   1       8.284  13.868   2.690  0.00  0.00     0.011 A 
ATOM      6  C   LIG d   1       7.270  14.952   2.891  0.00  0.00     0.011 A 
BRANCH   4   7
ATOM      7  C   LIG d   1       9.438  15.642   4.184  0.00  0.00     0.123 C 
BRANCH   7   8
ATOM      8  C   LIG d   1      10.697  14.802   4.451  0.00  0.00     0.173 C 
ATOM      9  O   LIG d   1      10.546  13.837   5.256  0.00  0.00    -0.648 OA
ATOM     10  O   LIG d   1      11.734  15.170   3.831  0.00  0.00    -0.648 OA
ENDBRANCH   7   8
ENDBRANCH   4   7
ENDBRANCH   3   4
ENDBRANCH   2   3
ENDBRANCH   1   2
BRANCH   1  11
ATOM     11  C   LIG d   1       7.141  19.248   2.012  0.00  0.00    -0.043 A 
ATOM     12  C   LIG d   1       6.518  20.431   1.574  0.00  0.00     0.019 A 
ATOM     13  C   LIG d   1       5.701  21.189   2.425  0.00  0.00    -0.036 A 
ATOM     14  C   LIG d   1       5.483  20.737   3.729  0.00  0.00     0.011 A 
ATOM     15  C   LIG d   1       6.073  19.552   4.172  0.00  0.00     0.001 A 
ATOM     16  C   LIG d   1       6.902  18.817   3.323  0.00  0.00     0.008 A 
BRANCH  13  17
ATOM     17  C   LIG d   1       5.208  22.485   1.938  0.00  0.00     0.014 C 
ATOM     18  C   LIG d   1       5.794  23.226   0.983  0.00  0.00     0.032 C 
BRANCH  18  19
ATOM     19  C   LIG d   1       5.266  24.498   0.471  0.00  0.00     0.057 A 
ATOM     20  N   LIG d   1       6.203  25.461   0.296  0.00  0.00    -0.248 NA
ATOM     21  C   LIG d   1       5.819  26.655  -0.186  0.00  0.00     0.069 A 
ATOM     22  C   LIG d   1       4.475  26.950  -0.499  0.00  0.00    -0.007 A 
ATOM     23  C   LIG d   1       6.774  27.640  -0.391  0.00  0.00     0.056 A 
ATOM     24  C   LIG d   1       3.522  25.952  -0.283  0.00  0.00     0.016 A 
ATOM     25  C   LIG d   1       4.120  28.209  -1.010  0.00  0.00     0.015 A 
ATOM     26  C   LIG d   1       3.919  24.715   0.213  0.00  0.00     0.032 A 
ATOM     27  C   LIG d   1       5.097  29.181  -1.210  0.00  0.00     0.025 A 
ATOM     28  C   LIG d   1       6.421  28.891  -0.898  0.00  0.00     0.036 A 
ATOM     29 CL   LIG d   1       7.634  30.088  -1.141  0.00  0.00    -0.084 Cl
ENDBRANCH  18  19
ENDBRANCH  13  17
ENDBRANCH   1  11
BRANCH   1  30
ATOM     30  C   LIG d   1       8.540  19.262  -0.113  0.00  0.00     0.025 C 
BRANCH  30  31
ATOM     31  C   LIG d   1       9.853  20.006   0.190  0.00  0.00     0.040 C 
BRANCH  31  32
ATOM     32  C   LIG d   1       9.707  21.515   0.120  0.00  0.00    -0.049 A 
ATOM     33  C   LIG d   1      10.252  22.441   1.047  0.00  0.00    -0.019 A 
ATOM     34  C   LIG d   1      10.082  23.819   0.753  0.00  0.00     0.011 A 
ATOM     35  C   LIG d   1       9.370  24.270  -0.360  0.00  0.00     0.001 A 
ATOM     36  C   LIG d   1       8.804  23.356  -1.230  0.00  0.00     0.001 A 
ATOM     37  C   LIG d   1       8.975  21.997  -0.993  0.00  0.00     0.007 A 
BRANCH  33  38
ATOM     38  C   LIG d   1      11.008  22.062   2.334  0.00  0.00     0.078 C 
ATOM     39  C   LIG d   1      11.711  23.259   2.996  0.00  0.00     0.051 C 
ATOM     40  C   LIG d   1      10.131  21.293   3.326  0.00  0.00     0.051 C 
BRANCH  38  41
ATOM     41  O   LIG d   1      12.083  21.143   2.027  0.00  0.00    -0.386 OA
ATOM     42  H   LIG d   1      11.735  20.518   1.368  0.00  0.00     0.211 HD
ENDBRANCH  38  41
ENDBRANCH  33  38
ENDBRANCH  31  32
ENDBRANCH  30  31
ENDBRANCH   1  30
TORSDOF 13
ENDMDL
MODEL 2
REMARK VINA RESULT:      -6.8     26.780     31.024
REMARK  13 active torsions:
REMARK  status: ('A' for Active; 'I' for Inactive)
REMARK    1  A    between atoms: S_2  and  C_10 
REMARK    2  A    between atoms: S_2  and  C_13 
REMARK    3  A    between atoms: O_5  and  C_23 
REMARK    4  A    between atoms: C_7  and  C_10 
REMARK    5  A    between atoms: C_7  and  C_11 
REMARK    6  A    between atoms: C_11  and  C_12 
REMARK    7  A    between atoms: C_13  and  C_15 
REMARK    8  A    between atoms: C_13  and  C_14 
REMARK    9  A    between atoms: C_14  and  C_16 
REMARK   10  A    between atoms: C_16  and  C_19 
REMARK   11  A    between atoms: C_20  and  C_23 
REMARK   12  A    between atoms: C_21  and  C_28 
REMARK   13  A    between atoms: C_32  and  C_33 
ROOT
ATOM      1  C   LIG d   1       8.753  -2.459  23.979  0.00  0.00     0.080 C 
ENDROOT
BRANCH   1   2
ATOM      2  S   LIG d   1       9.336  -3.925  24.924  0.00  0.00    -0.159 SA
BRANCH   2   3
ATOM      3  C   LIG d   1       8.325  -5.205  24.110  0.00  0.00     0.084 C 
BRANCH   3   4
ATOM      4  C   LIG d   1       6.856  -4.971  24.405  0.00  0.00    -0.022 A 
ATOM      5  C   LIG d   1       5.843  -5.797  23.631  0.00  0.00     0.011 A 
ATOM      6  C   LIG d   1       5.991  -4.338  23.324  0.00  0.00     0.011 A 
BRANCH   4   7
ATOM      7  C   LIG d   1       6.518  -4.673  25.865  0.00  0.00     0.123 C 
BRANCH   7   8
ATOM      8  C   LIG d   1       6.701  -5.884  26.794  0.00  0.00     0.173 C 
ATOM      9  O   LIG d   1       7.767  -5.889  27.476  0.00  0.00    -0.648 OA
ATOM     10  O   LIG d   1       5.762  -6.729  26.771  0.00  0.00    -0.648 OA
ENDBRANCH   7   8
ENDBRANCH   4   7
ENDBRANCH   3   4
ENDBRANCH   2   3
ENDBRANCH   1   2
BRANCH   1  11
ATOM     11  C   LIG d   1       8.089  -1.429  24.884  0.00  0.00    -0.043 A 
ATOM     12  C   LIG d   1       6.857  -0.838  24.550  0.00  0.00     0.019 A 
ATOM     13  C   LIG d   1       6.260   0.129  25.371  0.00  0.00    -0.036 A 
ATOM     14  C   LIG d   1       6.897   0.488  26.563  0.00  0.00     0.011 A 
ATOM     15  C   LIG d   1       8.107  -0.107  26.922  0.00  0.00     0.001 A 
ATOM     16  C   LIG d   1       8.703  -1.053  26.086  0.00  0.00     0.008 A 
BRANCH  13  17
ATOM     17  C   LIG d   1       5.051   0.805  24.880  0.00  0.00     0.014 C 
ATOM     18  C   LIG d   1       4.853   1.213  23.616  0.00  0.00     0.032 C 
BRANCH  18  19
ATOM     19  C   LIG d   1       3.620   1.844  23.125  0.00  0.00     0.057 A 
ATOM     20  N   LIG d   1       3.701   2.318  21.858  0.00  0.00    -0.248 NA
ATOM     21  C   LIG d   1       2.617   2.896  21.314  0.00  0.00     0.069 A 
ATOM     22  C   LIG d   1       1.404   3.046  22.019  0.00  0.00    -0.007 A 
ATOM     23  C   LIG d   1       2.682   3.363  20.010  0.00  0.00     0.056 A 
ATOM     24  C   LIG d   1       1.352   2.578  23.334  0.00  0.00     0.016 A 
ATOM     25  C   LIG d   1       0.293   3.650  21.408  0.00  0.00     0.015 A 
ATOM     26  C   LIG d   1       2.473   1.976  23.896  0.00  0.00     0.032 A 
ATOM     27  C   LIG d   1       0.381   4.108  20.095  0.00  0.00     0.025 A 
ATOM     28  C   LIG d   1       1.579   3.962  19.403  0.00  0.00     0.036 A 
ATOM     29 CL   LIG d   1       1.697   4.528  17.781  0.00  0.00    -0.084 Cl
ENDBRANCH  18  19
ENDBRANCH  13  17
ENDBRANCH   1  11
BRANCH   1  30
ATOM     30  C   LIG d   1       9.946  -1.867  23.202  0.00  0.00     0.025 C 
BRANCH  30  31
ATOM     31  C   LIG d   1       9.497  -1.167  21.906  0.00  0.00     0.040 C 
BRANCH  31  32
ATOM     32  C   LIG d   1       9.113   0.286  22.121  0.00  0.00    -0.049 A 
ATOM     33  C   LIG d   1       8.007   0.944  21.523  0.00  0.00    -0.019 A 
ATOM     34  C   LIG d   1       7.762   2.282  21.927  0.00  0.00     0.011 A 
ATOM     35  C   LIG d   1       8.585   2.961  22.828  0.00  0.00     0.001 A 
ATOM     36  C   LIG d   1       9.687   2.322  23.367  0.00  0.00     0.001 A 
ATOM     37  C   LIG d   1       9.943   1.001  23.019  0.00  0.00     0.007 A 
BRANCH  33  38
ATOM     38  C   LIG d   1       7.063   0.317  20.480  0.00  0.00     0.078 C 
ATOM     39  C   LIG d   1       7.745   0.062  19.126  0.00  0.00     0.051 C 
ATOM     40  C   LIG d   1       6.352  -0.933  21.008  0.00  0.00     0.051 C 
BRANCH  38  41
ATOM     41  O   LIG d   1       5.986   1.232  20.170  0.00  0.00    -0.386 OA
ATOM     42  H   LIG d   1       5.772   1.101  19.230  0.00  0.00     0.211 HD
ENDBRANCH  38  41
ENDBRANCH  33  38
ENDBRANCH  31  32
ENDBRANCH  30  31
ENDBRANCH   1  30
TORSDOF 13
ENDMDL
MODEL 3
REMARK VINA RESULT:      -6.7      4.754      9.731
REMARK  13 active torsions:
REMARK  status: ('A' for Active; 'I' for Inactive)
REMARK    1  A    between atoms: S_2  and  C_10 
REMARK    2  A    between atoms: S_2  and  C_13 
REMARK    3  A    between atoms: O_5  and  C_23 
REMARK    4  A    between atoms: C_7  and  C_10 
REMARK    5  A    between atoms: C_7  and  C_11 
REMARK    6  A    between atoms: C_11  and  C_12 
REMARK    7  A    between atoms: C_13  and  C_15 
REMARK    8  A    between atoms: C_13  and  C_14 
REMARK    9  A    between atoms: C_14  and  C_16 
REMARK   10  A    between atoms: C_16  and  C_19 
REMARK   11  A    between atoms: C_20  and  C_23 
REMARK   12  A    between atoms: C_21  and  C_28 
REMARK   13  A    between atoms: C_32  and  C_33 
ROOT
ATOM      1  C   LIG d   1       7.294  24.797   0.834  0.00  0.00     0.080 C 
ENDROOT
BRANCH   1   2
ATOM      2  S   LIG d   1       5.987  25.960   0.266  0.00  0.00    -0.159 SA
BRANCH   2   3
ATOM      3  C   LIG d   1       4.566  25.242   1.154  0.00  0.00     0.084 C 
BRANCH   3   4
ATOM      4  C   LIG d   1       3.642  24.544   0.175  0.00  0.00    -0.022 A 
ATOM      5  C   LIG d   1       2.299  24.063   0.698  0.00  0.00     0.011 A 
ATOM      6  C   LIG d   1       3.363  23.061   0.372  0.00  0.00     0.011 A 
BRANCH   4   7
ATOM      7  C   LIG d   1       3.661  25.091  -1.251  0.00  0.00     0.123 C 
BRANCH   7   8
ATOM      8  C   LIG d   1       2.482  26.027  -1.563  0.00  0.00     0.173 C 
ATOM      9  O   LIG d   1       2.458  27.109  -0.907  0.00  0.00    -0.648 OA
ATOM     10  O   LIG d   1       1.678  25.607  -2.442  0.00  0.00    -0.648 OA
ENDBRANCH   7   8
ENDBRANCH   4   7
ENDBRANCH   3   4
ENDBRANCH   2   3
ENDBRANCH   1   2
BRANCH   1  11
ATOM     11  C   LIG d   1       7.121  23.411   0.226  0.00  0.00    -0.043 A 
ATOM     12  C   LIG d   1       7.270  22.243   0.996  0.00  0.00     0.019 A 
ATOM     13  C   LIG d   1       7.136  20.968   0.429  0.00  0.00    -0.036 A 
ATOM     14  C   LIG d   1       6.820  20.862  -0.928  0.00  0.00     0.011 A 
ATOM     15  C   LIG d   1       6.643  22.011  -1.701  0.00  0.00     0.001 A 
ATOM     16  C   LIG d   1       6.800  23.275  -1.131  0.00  0.00     0.008 A 
BRANCH  13  17
ATOM     17  C   LIG d   1       7.452  19.801   1.266  0.00  0.00     0.014 C 
ATOM     18  C   LIG d   1       8.143  18.723   0.861  0.00  0.00     0.032 C 
BRANCH  18  19
ATOM     19  C   LIG d   1       8.493  17.584   1.720  0.00  0.00     0.057 A 
ATOM     20  N   LIG d   1       7.825  16.441   1.434  0.00  0.00    -0.248 NA
ATOM     21  C   LIG d   1       8.091  15.338   2.154  0.00  0.00     0.069 A 
ATOM     22  C   LIG d   1       9.027  15.331   3.210  0.00  0.00    -0.007 A 
ATOM     23  C   LIG d   1       7.429  14.157   1.853  0.00  0.00     0.056 A 
ATOM     24  C   LIG d   1       9.682  16.528   3.508  0.00  0.00     0.016 A 
ATOM     25  C   LIG d   1       9.280  14.153   3.931  0.00  0.00     0.015 A 
ATOM     26  C   LIG d   1       9.410  17.668   2.760  0.00  0.00     0.032 A 
ATOM     27  C   LIG d   1       8.605  12.978   3.609  0.00  0.00     0.025 A 
ATOM     28  C   LIG d   1       7.681  12.987   2.569  0.00  0.00     0.036 A 
ATOM     29 CL   LIG d   1       6.841  11.540   2.166  0.00  0.00    -0.084 Cl
ENDBRANCH  18  19
ENDBRANCH  13  17
ENDBRANCH   1  11
BRANCH   1  30
ATOM     30  C   LIG d   1       8.673  25.407   0.507  0.00  0.00     0.025 C 
BRANCH  30  31
ATOM     31  C   LIG d   1       9.667  25.234   1.670  0.00  0.00     0.040 C 
BRANCH  31  32
ATOM     32  C   LIG d   1      10.136  23.801   1.839  0.00  0.00    -0.049 A 
ATOM     33  C   LIG d   1      10.055  23.040   3.035  0.00  0.00    -0.019 A 
ATOM     34  C   LIG d   1      10.462  21.683   2.962  0.00  0.00     0.011 A 
ATOM     35  C   LIG d   1      10.975  21.111   1.795  0.00  0.00     0.001 A 
ATOM     36  C   LIG d   1      11.093  21.878   0.649  0.00  0.00     0.001 A 
ATOM     37  C   LIG d   1      10.675  23.203   0.673  0.00  0.00     0.007 A 
BRANCH  33  38
ATOM     38  C   LIG d   1       9.558  23.577   4.391  0.00  0.00     0.078 C 
ATOM     39  C   LIG d   1       8.071  23.970   4.376  0.00  0.00     0.051 C 
ATOM     40  C   LIG d   1       9.890  22.636   5.552  0.00  0.00     0.051 C 
BRANCH  38  41
ATOM     41  O   LIG d   1      10.248  24.805   4.722  0.00  0.00    -0.386 OA
ATOM     42  H   LIG d   1      11.093  24.548   5.130  0.00  0.00     0.211 HD
ENDBRANCH  38  41
ENDBRANCH  33  38
ENDBRANCH  31  32
ENDBRANCH  30  31
ENDBRANCH   1  30
TORSDOF 13
ENDMDL
MODEL 4
REMARK VINA RESULT:      -6.6     23.584     27.031
REMARK  13 active torsions:
REMARK  status: ('A' for Active; 'I' for Inactive)
REMARK    1  A    between atoms: S_2  and  C_10 
REMARK    2  A    between atoms: S_2  and  C_13 
REMARK    3  A    between atoms: O_5  and  C_23 
REMARK    4  A    between atoms: C_7  and  C_10 
REMARK    5  A    between atoms: C_7  and  C_11 
REMARK    6  A    between atoms: C_11  and  C_12 
REMARK    7  A    between atoms: C_13  and  C_15 
REMARK    8  A    between atoms: C_13  and  C_14 
REMARK    9  A    between atoms: C_14  and  C_16 
REMARK   10  A    between atoms: C_16  and  C_19 
REMARK   11  A    between atoms: C_20  and  C_23 
REMARK   12  A    between atoms: C_21  and  C_28 
REMARK   13  A    between atoms: C_32  and  C_33 
ROOT
ATOM      1  C   LIG d   1      16.519  -2.419  -8.403  0.00  0.00     0.080 C 
ENDROOT
BRANCH   1   2
ATOM      2  S   LIG d   1      16.320  -3.969  -7.433  0.00  0.00    -0.159 SA
BRANCH   2   3
ATOM      3  C   LIG d   1      16.966  -3.383  -5.832  0.00  0.00     0.084 C 
BRANCH   3   4
ATOM      4  C   LIG d   1      15.907  -3.537  -4.758  0.00  0.00    -0.022 A 
ATOM      5  C   LIG d   1      16.353  -3.423  -3.310  0.00  0.00     0.011 A 
ATOM      6  C   LIG d   1      15.961  -4.762  -3.856  0.00  0.00     0.011 A 
BRANCH   4   7
ATOM      7  C   LIG d   1      14.537  -2.951  -5.096  0.00  0.00     0.123 C 
BRANCH   7   8
ATOM      8  C   LIG d   1      14.513  -1.414  -5.096  0.00  0.00     0.173 C 
ATOM      9  O   LIG d   1      14.351  -0.873  -6.229  0.00  0.00    -0.648 OA
ATOM     10  O   LIG d   1      14.652  -0.871  -3.964  0.00  0.00    -0.648 OA
ENDBRANCH   7   8
ENDBRANCH   4   7
ENDBRANCH   3   4
ENDBRANCH   2   3
ENDBRANCH   1   2
BRANCH   1  11
ATOM     11  C   LIG d   1      17.986  -2.078  -8.631  0.00  0.00    -0.043 A 
ATOM     12  C   LIG d   1      18.728  -1.340  -7.691  0.00  0.00     0.019 A 
ATOM     13  C   LIG d   1      20.070  -1.005  -7.915  0.00  0.00    -0.036 A 
ATOM     14  C   LIG d   1      20.689  -1.444  -9.089  0.00  0.00     0.011 A 
ATOM     15  C   LIG d   1      19.975  -2.200 -10.021  0.00  0.00     0.001 A 
ATOM     16  C   LIG d   1      18.632  -2.508  -9.798  0.00  0.00     0.008 A 
BRANCH  13  17
ATOM     17  C   LIG d   1      20.729  -0.107  -6.955  0.00  0.00     0.014 C 
ATOM     18  C   LIG d   1      20.100   0.784  -6.172  0.00  0.00     0.032 C 
BRANCH  18  19
ATOM     19  C   LIG d   1      20.764   1.642  -5.182  0.00  0.00     0.057 A 
ATOM     20  N   LIG d   1      21.344   2.751  -5.703  0.00  0.00    -0.248 NA
ATOM     21  C   LIG d   1      21.961   3.608  -4.874  0.00  0.00     0.069 A 
ATOM     22  C   LIG d   1      22.045   3.388  -3.482  0.00  0.00    -0.007 A 
ATOM     23  C   LIG d   1      22.537   4.757  -5.394  0.00  0.00     0.056 A 
ATOM     24  C   LIG d   1      21.466   2.224  -2.970  0.00  0.00     0.016 A 
ATOM     25  C   LIG d   1      22.692   4.316  -2.650  0.00  0.00     0.015 A 
ATOM     26  C   LIG d   1      20.824   1.339  -3.829  0.00  0.00     0.032 A 
ATOM     27  C   LIG d   1      23.261   5.465  -3.195  0.00  0.00     0.025 A 
ATOM     28  C   LIG d   1      23.181   5.679  -4.567  0.00  0.00     0.036 A 
ATOM     29 CL   LIG d   1      23.883   7.094  -5.249  0.00  0.00    -0.084 Cl
ENDBRANCH  18  19
ENDBRANCH  13  17
ENDBRANCH   1  11
BRANCH   1  30
ATOM     30  C   LIG d   1      15.743  -2.564  -9.729  0.00  0.00     0.025 C 
BRANCH  30  31
ATOM     31  C   LIG d   1      14.220  -2.553  -9.507  0.00  0.00     0.040 C 
BRANCH  31  32
ATOM     32  C   LIG d   1      13.434  -2.643 -10.803  0.00  0.00    -0.049 A 
ATOM     33  C   LIG d   1      12.802  -3.810 -11.306  0.00  0.00    -0.019 A 
ATOM     34  C   LIG d   1      12.035  -3.664 -12.491  0.00  0.00     0.011 A 
ATOM     35  C   LIG d   1      11.933  -2.454 -13.180  0.00  0.00     0.001 A 
ATOM     36  C   LIG d   1      12.593  -1.335 -12.703  0.00  0.00     0.001 A 
ATOM     37  C   LIG d   1      13.330  -1.430 -11.528  0.00  0.00     0.007 A 
BRANCH  33  38
ATOM     38  C   LIG d   1      12.887  -5.207 -10.664  0.00  0.00     0.078 C 
ATOM     39  C   LIG d   1      12.608  -5.193  -9.151  0.00  0.00     0.051 C 
ATOM     40  C   LIG d   1      12.029  -6.243 -11.395  0.00  0.00     0.051 C 
BRANCH  38  41
ATOM     41  O   LIG d   1      14.235  -5.724 -10.773  0.00  0.00    -0.386 OA
ATOM     42  H   LIG d   1      14.564  -5.835  -9.864  0.00  0.00     0.211 HD
ENDBRANCH  38  41
ENDBRANCH  33  38
ENDBRANCH  31  32
ENDBRANCH  30  31
ENDBRANCH   1  30
TORSDOF 13
ENDMDL
MODEL 5
REMARK VINA RESULT:      -6.5     30.416     33.951
REMARK  13 active torsions:
REMARK  status: ('A' for Active; 'I' for Inactive)
REMARK    1  A    between atoms: S_2  and  C_10 
REMARK    2  A    between atoms: S_2  and  C_13 
REMARK    3  A    between atoms: O_5  and  C_23 
REMARK    4  A    between atoms: C_7  and  C_10 
REMARK    5  A    between atoms: C_7  and  C_11 
REMARK    6  A    between atoms: C_11  and  C_12 
REMARK    7  A    between atoms: C_13  and  C_15 
REMARK    8  A    between atoms: C_13  and  C_14 
REMARK    9  A    between atoms: C_14  and  C_16 
REMARK   10  A    between atoms: C_16  and  C_19 
REMARK   11  A    between atoms: C_20  and  C_23 
REMARK   12  A    between atoms: C_21  and  C_28 
REMARK   13  A    between atoms: C_32  and  C_33 
ROOT
ATOM      1  C   LIG d   1      25.861  -0.861  20.487  0.00  0.00     0.080 C 
ENDROOT
BRANCH   1   2
ATOM      2  S   LIG d   1      26.073  -2.520  21.254  0.00  0.00    -0.159 SA
BRANCH   2   3
ATOM      3  C   LIG d   1      26.635  -3.439  19.783  0.00  0.00     0.084 C 
BRANCH   3   4
ATOM      4  C   LIG d   1      25.627  -4.514  19.427  0.00  0.00    -0.022 A 
ATOM      5  C   LIG d   1      26.001  -5.490  18.324  0.00  0.00     0.011 A 
ATOM      6  C   LIG d   1      24.953  -4.452  18.063  0.00  0.00     0.011 A 
BRANCH   4   7
ATOM      7  C   LIG d   1      24.831  -5.084  20.599  0.00  0.00     0.123 C 
BRANCH   7   8
ATOM      8  C   LIG d   1      25.442  -6.367  21.186  0.00  0.00     0.173 C 
ATOM      9  O   LIG d   1      26.511  -6.208  21.846  0.00  0.00    -0.648 OA
ATOM     10  O   LIG d   1      24.801  -7.429  20.946  0.00  0.00    -0.648 OA
ENDBRANCH   7   8
ENDBRANCH   4   7
ENDBRANCH   3   4
ENDBRANCH   2   3
ENDBRANCH   1   2
BRANCH   1  11
ATOM     11  C   LIG d   1      24.955  -0.915  19.263  0.00  0.00    -0.043 A 
ATOM     12  C   LIG d   1      25.458  -0.726  17.963  0.00  0.00     0.019 A 
ATOM     13  C   LIG d   1      24.619  -0.750  16.840  0.00  0.00    -0.036 A 
ATOM     14  C   LIG d   1      23.256  -0.997  17.022  0.00  0.00     0.011 A 
ATOM     15  C   LIG d   1      22.743  -1.213  18.302  0.00  0.00     0.001 A 
ATOM     16  C   LIG d   1      23.584  -1.165  19.415  0.00  0.00     0.008 A 
BRANCH  13  17
ATOM     17  C   LIG d   1      25.198  -0.397  15.536  0.00  0.00     0.014 C 
ATOM     18  C   LIG d   1      24.833  -0.929  14.358  0.00  0.00     0.032 C 
BRANCH  18  19
ATOM     19  C   LIG d   1      25.385  -0.534  13.056  0.00  0.00     0.057 A 
ATOM     20  N   LIG d   1      25.683  -1.572  12.237  0.00  0.00    -0.248 NA
ATOM     21  C   LIG d   1      26.177  -1.310  11.015  0.00  0.00     0.069 A 
ATOM     22  C   LIG d   1      26.415   0.004  10.560  0.00  0.00    -0.007 A 
ATOM     23  C   LIG d   1      26.463  -2.364  10.161  0.00  0.00     0.056 A 
ATOM     24  C   LIG d   1      26.130   1.058  11.431  0.00  0.00     0.016 A 
ATOM     25  C   LIG d   1      26.924   0.232   9.271  0.00  0.00     0.015 A 
ATOM     26  C   LIG d   1      25.615   0.787  12.695  0.00  0.00     0.032 A 
ATOM     27  C   LIG d   1      27.201  -0.843   8.429  0.00  0.00     0.025 A 
ATOM     28  C   LIG d   1      26.968  -2.138   8.880  0.00  0.00     0.036 A 
ATOM     29 CL   LIG d   1      27.310  -3.472   7.848  0.00  0.00    -0.084 Cl
ENDBRANCH  18  19
ENDBRANCH  13  17
ENDBRANCH   1  11
BRANCH   1  30
ATOM     30  C   LIG d   1      25.331   0.114  21.559  0.00  0.00     0.025 C 
BRANCH  30  31
ATOM     31  C   LIG d   1      24.701  -0.630  22.751  0.00  0.00     0.040 C 
BRANCH  31  32
ATOM     32  C   LIG d   1      23.830   0.266  23.613  0.00  0.00    -0.049 A 
ATOM     33  C   LIG d   1      22.655  -0.138  24.300  0.00  0.00    -0.019 A 
ATOM     34  C   LIG d   1      22.034   0.829  25.131  0.00  0.00     0.011 A 
ATOM     35  C   LIG d   1      22.503   2.139  25.245  0.00  0.00     0.001 A 
ATOM     36  C   LIG d   1      23.622   2.532  24.533  0.00  0.00     0.001 A 
ATOM     37  C   LIG d   1      24.277   1.605  23.731  0.00  0.00     0.007 A 
BRANCH  33  38
ATOM     38  C   LIG d   1      22.016  -1.537  24.209  0.00  0.00     0.078 C 
ATOM     39  C   LIG d   1      22.907  -2.646  24.791  0.00  0.00     0.051 C 
ATOM     40  C   LIG d   1      20.600  -1.574  24.793  0.00  0.00     0.051 C 
BRANCH  38  41
ATOM     41  O   LIG d   1      21.837  -1.913  22.823  0.00  0.00    -0.386 OA
ATOM     42  H   LIG d   1      21.356  -1.183  22.397  0.00  0.00     0.211 HD
ENDBRANCH  38  41
ENDBRANCH  33  38
ENDBRANCH  31  32
ENDBRANCH  30  31
ENDBRANCH   1  30
TORSDOF 13
ENDMDL
MODEL 6
REMARK VINA RESULT:      -6.5      2.535      3.965
REMARK  13 active torsions:
REMARK  status: ('A' for Active; 'I' for Inactive)
REMARK    1  A    between atoms: S_2  and  C_10 
REMARK    2  A    between atoms: S_2  and  C_13 
REMARK    3  A    between atoms: O_5  and  C_23 
REMARK    4  A    between atoms: C_7  and  C_10 
REMARK    5  A    between atoms: C_7  and  C_11 
REMARK    6  A    between atoms: C_11  and  C_12 
REMARK    7  A    between atoms: C_13  and  C_15 
REMARK    8  A    between atoms: C_13  and  C_14 
REMARK    9  A    between atoms: C_14  and  C_16 
REMARK   10  A    between atoms: C_16  and  C_19 
REMARK   11  A    between atoms: C_20  and  C_23 
REMARK   12  A    between atoms: C_21  and  C_28 
REMARK   13  A    between atoms: C_32  and  C_33 
ROOT
ATOM      1  C   LIG d   1       9.739  19.605   0.752  0.00  0.00     0.080 C 
ENDROOT
BRANCH   1   2
ATOM      2  S   LIG d   1       8.797  18.618   1.986  0.00  0.00    -0.159 SA
BRANCH   2   3
ATOM      3  C   LIG d   1       9.365  16.953   1.507  0.00  0.00     0.084 C 
BRANCH   3   4
ATOM      4  C   LIG d   1       9.160  15.985   2.655  0.00  0.00    -0.022 A 
ATOM      5  C   LIG d   1       9.088  14.504   2.321  0.00  0.00     0.011 A 
ATOM      6  C   LIG d   1       7.843  15.226   2.736  0.00  0.00     0.011 A 
BRANCH   4   7
ATOM      7  C   LIG d   1       9.861  16.355   3.961  0.00  0.00     0.123 C 
BRANCH   7   8
ATOM      8  C   LIG d   1      10.848  15.283   4.450  0.00  0.00     0.173 C 
ATOM      9  O   LIG d   1      10.429  14.549   5.393  0.00  0.00    -0.648 OA
ATOM     10  O   LIG d   1      11.958  15.256   3.849  0.00  0.00    -0.648 OA
ENDBRANCH   7   8
ENDBRANCH   4   7
ENDBRANCH   3   4
ENDBRANCH   2   3
ENDBRANCH   1   2
BRANCH   1  11
ATOM     11  C   LIG d   1       8.868  20.666   0.091  0.00  0.00    -0.043 A 
ATOM     12  C   LIG d   1       9.246  22.021   0.065  0.00  0.00     0.019 A 
ATOM     13  C   LIG d   1       8.431  23.000  -0.520  0.00  0.00    -0.036 A 
ATOM     14  C   LIG d   1       7.229  22.609  -1.116  0.00  0.00     0.011 A 
ATOM     15  C   LIG d   1       6.850  21.265  -1.122  0.00  0.00     0.001 A 
ATOM     16  C   LIG d   1       7.659  20.302  -0.517  0.00  0.00     0.008 A 
BRANCH  13  17
ATOM     17  C   LIG d   1       8.826  24.408  -0.374  0.00  0.00     0.014 C 
ATOM     18  C   LIG d   1       7.994  25.458  -0.466  0.00  0.00     0.032 C 
BRANCH  18  19
ATOM     19  C   LIG d   1       8.392  26.859  -0.271  0.00  0.00     0.057 A 
ATOM     20  N   LIG d   1       7.683  27.749  -1.007  0.00  0.00    -0.248 NA
ATOM     21  C   LIG d   1       7.962  29.057  -0.883  0.00  0.00     0.069 A 
ATOM     22  C   LIG d   1       8.978  29.538  -0.030  0.00  0.00    -0.007 A 
ATOM     23  C   LIG d   1       7.226  29.978  -1.614  0.00  0.00     0.056 A 
ATOM     24  C   LIG d   1       9.717  28.601   0.696  0.00  0.00     0.016 A 
ATOM     25  C   LIG d   1       9.230  30.916   0.075  0.00  0.00     0.015 A 
ATOM     26  C   LIG d   1       9.426  27.247   0.571  0.00  0.00     0.032 A 
ATOM     27  C   LIG d   1       8.475  31.822  -0.667  0.00  0.00     0.025 A 
ATOM     28  C   LIG d   1       7.476  31.346  -1.509  0.00  0.00     0.036 A 
ATOM     29 CL   LIG d   1       6.541  32.459  -2.431  0.00  0.00    -0.084 Cl
ENDBRANCH  18  19
ENDBRANCH  13  17
ENDBRANCH   1  11
BRANCH   1  30
ATOM     30  C   LIG d   1      10.972  20.217   1.448  0.00  0.00     0.025 C 
BRANCH  30  31
ATOM     31  C   LIG d   1      10.771  20.339   2.970  0.00  0.00     0.040 C 
BRANCH  31  32
ATOM     32  C   LIG d   1      11.595  21.454   3.587  0.00  0.00    -0.049 A 
ATOM     33  C   LIG d   1      12.455  21.322   4.709  0.00  0.00    -0.019 A 
ATOM     34  C   LIG d   1      13.212  22.465   5.075  0.00  0.00     0.011 A 
ATOM     35  C   LIG d   1      13.095  23.691   4.415  0.00  0.00     0.001 A 
ATOM     36  C   LIG d   1      12.217  23.818   3.353  0.00  0.00     0.001 A 
ATOM     37  C   LIG d   1      11.481  22.712   2.945  0.00  0.00     0.007 A 
BRANCH  33  38
ATOM     38  C   LIG d   1      12.626  20.040   5.545  0.00  0.00     0.078 C 
ATOM     39  C   LIG d   1      11.339  19.621   6.275  0.00  0.00     0.051 C 
ATOM     40  C   LIG d   1      13.228  18.887   4.737  0.00  0.00     0.051 C 
BRANCH  38  41
ATOM     41  O   LIG d   1      13.581  20.264   6.609  0.00  0.00    -0.386 OA
ATOM     42  H   LIG d   1      13.828  19.387   6.950  0.00  0.00     0.211 HD
ENDBRANCH  38  41
ENDBRANCH  33  38
ENDBRANCH  31  32
ENDBRANCH  30  31
ENDBRANCH   1  30
TORSDOF 13
ENDMDL
MODEL 7
REMARK VINA RESULT:      -6.5      3.261      5.401
REMARK  13 active torsions:
REMARK  status: ('A' for Active; 'I' for Inactive)
REMARK    1  A    between atoms: S_2  and  C_10 
REMARK    2  A    between atoms: S_2  and  C_13 
REMARK    3  A    between atoms: O_5  and  C_23 
REMARK    4  A    between atoms: C_7  and  C_10 
REMARK    5  A    between atoms: C_7  and  C_11 
REMARK    6  A    between atoms: C_11  and  C_12 
REMARK    7  A    between atoms: C_13  and  C_15 
REMARK    8  A    between atoms: C_13  and  C_14 
REMARK    9  A    between atoms: C_14  and  C_16 
REMARK   10  A    between atoms: C_16  and  C_19 
REMARK   11  A    between atoms: C_20  and  C_23 
REMARK   12  A    between atoms: C_21  and  C_28 
REMARK   13  A    between atoms: C_32  and  C_33 
ROOT
ATOM      1  C   LIG d   1       9.732  19.957   3.654  0.00  0.00     0.080 C 
ENDROOT
BRANCH   1   2
ATOM      2  S   LIG d   1      10.284  18.429   2.792  0.00  0.00    -0.159 SA
BRANCH   2   3
ATOM      3  C   LIG d   1       9.237  17.220   3.666  0.00  0.00     0.084 C 
BRANCH   3   4
ATOM      4  C   LIG d   1       8.510  16.343   2.665  0.00  0.00    -0.022 A 
ATOM      5  C   LIG d   1       7.522  17.017   1.728  0.00  0.00     0.011 A 
ATOM      6  C   LIG d   1       7.011  16.141   2.831  0.00  0.00     0.011 A 
BRANCH   4   7
ATOM      7  C   LIG d   1       9.332  15.197   2.077  0.00  0.00     0.123 C 
BRANCH   7   8
ATOM      8  C   LIG d   1      10.234  14.499   3.107  0.00  0.00     0.173 C 
ATOM      9  O   LIG d   1       9.691  13.556   3.754  0.00  0.00    -0.648 OA
ATOM     10  O   LIG d   1      11.413  14.946   3.183  0.00  0.00    -0.648 OA
ENDBRANCH   7   8
ENDBRANCH   4   7
ENDBRANCH   3   4
ENDBRANCH   2   3
ENDBRANCH   1   2
BRANCH   1  11
ATOM     11  C   LIG d   1      10.906  20.732   4.241  0.00  0.00    -0.043 A 
ATOM     12  C   LIG d   1      11.167  22.065   3.875  0.00  0.00     0.019 A 
ATOM     13  C   LIG d   1      12.263  22.768   4.395  0.00  0.00    -0.036 A 
ATOM     14  C   LIG d   1      13.094  22.132   5.321  0.00  0.00     0.011 A 
ATOM     15  C   LIG d   1      12.834  20.818   5.715  0.00  0.00     0.001 A 
ATOM     16  C   LIG d   1      11.753  20.121   5.174  0.00  0.00     0.008 A 
BRANCH  13  17
ATOM     17  C   LIG d   1      12.551  24.102   3.851  0.00  0.00     0.014 C 
ATOM     18  C   LIG d   1      12.047  25.255   4.321  0.00  0.00     0.032 C 
BRANCH  18  19
ATOM     19  C   LIG d   1      12.380  26.587   3.799  0.00  0.00     0.057 A 
ATOM     20  N   LIG d   1      11.309  27.313   3.396  0.00  0.00    -0.248 NA
ATOM     21  C   LIG d   1      11.511  28.553   2.920  0.00  0.00     0.069 A 
ATOM     22  C   LIG d   1      12.798  29.120   2.806  0.00  0.00    -0.007 A 
ATOM     23  C   LIG d   1      10.419  29.313   2.527  0.00  0.00     0.056 A 
ATOM     24  C   LIG d   1      13.890  28.343   3.198  0.00  0.00     0.016 A 
ATOM     25  C   LIG d   1      12.962  30.424   2.310  0.00  0.00     0.015 A 
ATOM     26  C   LIG d   1      13.681  27.061   3.695  0.00  0.00     0.032 A 
ATOM     27  C   LIG d   1      11.850  31.170   1.925  0.00  0.00     0.025 A 
ATOM     28  C   LIG d   1      10.582  30.608   2.035  0.00  0.00     0.036 A 
ATOM     29 CL   LIG d   1       9.204  31.521   1.558  0.00  0.00    -0.084 Cl
ENDBRANCH  18  19
ENDBRANCH  13  17
ENDBRANCH   1  11
BRANCH   1  30
ATOM     30  C   LIG d   1       8.908  20.811   2.668  0.00  0.00     0.025 C 
BRANCH  30  31
ATOM     31  C   LIG d   1       9.267  20.502   1.203  0.00  0.00     0.040 C 
BRANCH  31  32
ATOM     32  C   LIG d   1       8.433  21.293   0.211  0.00  0.00    -0.049 A 
ATOM     33  C   LIG d   1       8.721  22.605  -0.247  0.00  0.00    -0.019 A 
ATOM     34  C   LIG d   1       7.867  23.136  -1.249  0.00  0.00     0.011 A 
ATOM     35  C   LIG d   1       6.757  22.445  -1.739  0.00  0.00     0.001 A 
ATOM     36  C   LIG d   1       6.462  21.185  -1.248  0.00  0.00     0.001 A 
ATOM     37  C   LIG d   1       7.292  20.618  -0.289  0.00  0.00     0.007 A 
BRANCH  33  38
ATOM     38  C   LIG d   1       9.882  23.483   0.257  0.00  0.00     0.078 C 
ATOM     39  C   LIG d   1       9.533  24.272   1.530  0.00  0.00     0.051 C 
ATOM     40  C   LIG d   1      11.188  22.698   0.409  0.00  0.00     0.051 C 
BRANCH  38  41
ATOM     41  O   LIG d   1      10.194  24.504  -0.720  0.00  0.00    -0.386 OA
ATOM     42  H   LIG d   1       9.344  24.853  -1.039  0.00  0.00     0.211 HD
ENDBRANCH  38  41
ENDBRANCH  33  38
ENDBRANCH  31  32
ENDBRANCH  30  31
ENDBRANCH   1  30
TORSDOF 13
ENDMDL
MODEL 8
REMARK VINA RESULT:      -6.5      3.060      5.274
REMARK  13 active torsions:
REMARK  status: ('A' for Active; 'I' for Inactive)
REMARK    1  A    between atoms: S_2  and  C_10 
REMARK    2  A    between atoms: S_2  and  C_13 
REMARK    3  A    between atoms: O_5  and  C_23 
REMARK    4  A    between atoms: C_7  and  C_10 
REMARK    5  A    between atoms: C_7  and  C_11 
REMARK    6  A    between atoms: C_11  and  C_12 
REMARK    7  A    between atoms: C_13  and  C_15 
REMARK    8  A    between atoms: C_13  and  C_14 
REMARK    9  A    between atoms: C_14  and  C_16 
REMARK   10  A    between atoms: C_16  and  C_19 
REMARK   11  A    between atoms: C_20  and  C_23 
REMARK   12  A    between atoms: C_21  and  C_28 
REMARK   13  A    between atoms: C_32  and  C_33 
ROOT
ATOM      1  C   LIG d   1       7.231  18.745   1.919  0.00  0.00     0.080 C 
ENDROOT
BRANCH   1   2
ATOM      2  S   LIG d   1       7.420  17.107   2.735  0.00  0.00    -0.159 SA
BRANCH   2   3
ATOM      3  C   LIG d   1       9.228  17.117   2.970  0.00  0.00     0.084 C 
BRANCH   3   4
ATOM      4  C   LIG d   1       9.559  17.066   4.448  0.00  0.00    -0.022 A 
ATOM      5  C   LIG d   1       8.817  18.022   5.367  0.00  0.00     0.011 A 
ATOM      6  C   LIG d   1      10.266  18.260   5.074  0.00  0.00     0.011 A 
BRANCH   4   7
ATOM      7  C   LIG d   1       9.856  15.677   5.009  0.00  0.00     0.123 C 
BRANCH   7   8
ATOM      8  C   LIG d   1      10.768  14.834   4.103  0.00  0.00     0.173 C 
ATOM      9  O   LIG d   1      10.214  13.839   3.550  0.00  0.00    -0.648 OA
ATOM     10  O   LIG d   1      11.961  15.237   4.013  0.00  0.00    -0.648 OA
ENDBRANCH   7   8
ENDBRANCH   4   7
ENDBRANCH   3   4
ENDBRANCH   2   3
ENDBRANCH   1   2
BRANCH   1  11
ATOM     11  C   LIG d   1       7.065  19.868   2.935  0.00  0.00    -0.043 A 
ATOM     12  C   LIG d   1       8.060  20.843   3.126  0.00  0.00     0.019 A 
ATOM     13  C   LIG d   1       7.918  21.861   4.080  0.00  0.00    -0.036 A 
ATOM     14  C   LIG d   1       6.743  21.918   4.835  0.00  0.00     0.011 A 
ATOM     15  C   LIG d   1       5.734  20.974   4.640  0.00  0.00     0.001 A 
ATOM     16  C   LIG d   1       5.896  19.952   3.703  0.00  0.00     0.008 A 
BRANCH  13  17
ATOM     17  C   LIG d   1       9.063  22.750   4.321  0.00  0.00     0.014 C 
ATOM     18  C   LIG d   1      10.063  22.976   3.452  0.00  0.00     0.032 C 
BRANCH  18  19
ATOM     19  C   LIG d   1      11.178  23.904   3.685  0.00  0.00     0.057 A 
ATOM     20  N   LIG d   1      10.863  25.211   3.511  0.00  0.00    -0.248 NA
ATOM     21  C   LIG d   1      11.813  26.137   3.719  0.00  0.00     0.069 A 
ATOM     22  C   LIG d   1      13.131  25.800   4.094  0.00  0.00    -0.007 A 
ATOM     23  C   LIG d   1      11.495  27.478   3.567  0.00  0.00     0.056 A 
ATOM     24  C   LIG d   1      13.442  24.446   4.238  0.00  0.00     0.016 A 
ATOM     25  C   LIG d   1      14.091  26.803   4.310  0.00  0.00     0.015 A 
ATOM     26  C   LIG d   1      12.457  23.486   4.026  0.00  0.00     0.032 A 
ATOM     27  C   LIG d   1      13.747  28.143   4.154  0.00  0.00     0.025 A 
ATOM     28  C   LIG d   1      12.448  28.474   3.782  0.00  0.00     0.036 A 
ATOM     29 CL   LIG d   1      12.016  30.128   3.584  0.00  0.00    -0.084 Cl
ENDBRANCH  18  19
ENDBRANCH  13  17
ENDBRANCH   1  11
BRANCH   1  30
ATOM     30  C   LIG d   1       8.441  18.975   0.991  0.00  0.00     0.025 C 
BRANCH  30  31
ATOM     31  C   LIG d   1       8.074  19.843  -0.227  0.00  0.00     0.040 C 
BRANCH  31  32
ATOM     32  C   LIG d   1       8.715  21.218  -0.187  0.00  0.00    -0.049 A 
ATOM     33  C   LIG d   1       8.031  22.453  -0.339  0.00  0.00    -0.019 A 
ATOM     34  C   LIG d   1       8.797  23.635  -0.176  0.00  0.00     0.011 A 
ATOM     35  C   LIG d   1      10.172  23.616   0.069  0.00  0.00     0.001 A 
ATOM     36  C   LIG d   1      10.835  22.405   0.166  0.00  0.00     0.001 A 
ATOM     37  C   LIG d   1      10.113  21.224   0.044  0.00  0.00     0.007 A 
BRANCH  33  38
ATOM     38  C   LIG d   1       6.531  22.598  -0.661  0.00  0.00     0.078 C 
ATOM     39  C   LIG d   1       6.119  21.873  -1.954  0.00  0.00     0.051 C 
ATOM     40  C   LIG d   1       5.636  22.215   0.521  0.00  0.00     0.051 C 
BRANCH  38  41
ATOM     41  O   LIG d   1       6.209  23.986  -0.913  0.00  0.00    -0.386 OA
ATOM     42  H   LIG d   1       6.260  24.113  -1.877  0.00  0.00     0.211 HD
ENDBRANCH  38  41
ENDBRANCH  33  38
ENDBRANCH  31  32
ENDBRANCH  30  31
ENDBRANCH   1  30
TORSDOF 13
ENDMDL
MODEL 9
REMARK VINA RESULT:      -6.4     32.029     36.445
REMARK  13 active torsions:
REMARK  status: ('A' for Active; 'I' for Inactive)
REMARK    1  A    between atoms: S_2  and  C_10 
REMARK    2  A    between atoms: S_2  and  C_13 
REMARK    3  A    between atoms: O_5  and  C_23 
REMARK    4  A    between atoms: C_7  and  C_10 
REMARK    5  A    between atoms: C_7  and  C_11 
REMARK    6  A    between atoms: C_11  and  C_12 
REMARK    7  A    between atoms: C_13  and  C_15 
REMARK    8  A    between atoms: C_13  and  C_14 
REMARK    9  A    between atoms: C_14  and  C_16 
REMARK   10  A    between atoms: C_16  and  C_19 
REMARK   11  A    between atoms: C_20  and  C_23 
REMARK   12  A    between atoms: C_21  and  C_28 
REMARK   13  A    between atoms: C_32  and  C_33 
ROOT
ATOM      1  C   LIG d   1      24.343  -0.756  26.931  0.00  0.00     0.080 C 
ENDROOT
BRANCH   1   2
ATOM      2  S   LIG d   1      24.424   0.991  27.503  0.00  0.00    -0.159 SA
BRANCH   2   3
ATOM      3  C   LIG d   1      25.301   1.712  26.076  0.00  0.00     0.084 C 
BRANCH   3   4
ATOM      4  C   LIG d   1      24.416   2.731  25.384  0.00  0.00    -0.022 A 
ATOM      5  C   LIG d   1      22.936   2.409  25.266  0.00  0.00     0.011 A 
ATOM      6  C   LIG d   1      23.799   2.362  24.043  0.00  0.00     0.011 A 
BRANCH   4   7
ATOM      7  C   LIG d   1      24.777   4.194  25.635  0.00  0.00     0.123 C 
BRANCH   7   8
ATOM      8  C   LIG d   1      23.813   4.906  26.597  0.00  0.00     0.173 C 
ATOM      9  O   LIG d   1      23.975   4.641  27.824  0.00  0.00    -0.648 OA
ATOM     10  O   LIG d   1      22.974   5.675  26.049  0.00  0.00    -0.648 OA
ENDBRANCH   7   8
ENDBRANCH   4   7
ENDBRANCH   3   4
ENDBRANCH   2   3
ENDBRANCH   1   2
BRANCH   1  11
ATOM     11  C   LIG d   1      23.175  -0.987  25.980  0.00  0.00    -0.043 A 
ATOM     12  C   LIG d   1      23.377  -1.359  24.639  0.00  0.00     0.019 A 
ATOM     13  C   LIG d   1      22.302  -1.546  23.759  0.00  0.00    -0.036 A 
ATOM     14  C   LIG d   1      21.000  -1.386  24.240  0.00  0.00     0.011 A 
ATOM     15  C   LIG d   1      20.780  -1.042  25.575  0.00  0.00     0.001 A 
ATOM     16  C   LIG d   1      21.859  -0.837  26.437  0.00  0.00     0.008 A 
BRANCH  13  17
ATOM     17  C   LIG d   1      22.603  -1.788  22.340  0.00  0.00     0.014 C 
ATOM     18  C   LIG d   1      23.735  -2.339  21.873  0.00  0.00     0.032 C 
BRANCH  18  19
ATOM     19  C   LIG d   1      24.005  -2.619  20.456  0.00  0.00     0.057 A 
ATOM     20  N   LIG d   1      23.776  -1.573  19.626  0.00  0.00    -0.248 NA
ATOM     21  C   LIG d   1      24.012  -1.726  18.312  0.00  0.00     0.069 A 
ATOM     22  C   LIG d   1      24.470  -2.942  17.762  0.00  0.00    -0.007 A 
ATOM     23  C   LIG d   1      23.804  -0.655  17.458  0.00  0.00     0.056 A 
ATOM     24  C   LIG d   1      24.669  -4.018  18.632  0.00  0.00     0.016 A 
ATOM     25  C   LIG d   1      24.711  -3.056  16.383  0.00  0.00     0.015 A 
ATOM     26  C   LIG d   1      24.429  -3.857  19.992  0.00  0.00     0.032 A 
ATOM     27  C   LIG d   1      24.498  -1.964  15.545  0.00  0.00     0.025 A 
ATOM     28  C   LIG d   1      24.044  -0.767  16.088  0.00  0.00     0.036 A 
ATOM     29 CL   LIG d   1      23.775   0.586  15.059  0.00  0.00    -0.084 Cl
ENDBRANCH  18  19
ENDBRANCH  13  17
ENDBRANCH   1  11
BRANCH   1  30
ATOM     30  C   LIG d   1      25.696  -1.128  26.290  0.00  0.00     0.025 C 
BRANCH  30  31
ATOM     31  C   LIG d   1      26.060  -2.604  26.534  0.00  0.00     0.040 C 
BRANCH  31  32
ATOM     32  C   LIG d   1      26.217  -3.394  25.247  0.00  0.00    -0.049 A 
ATOM     33  C   LIG d   1      25.559  -4.613  24.941  0.00  0.00    -0.019 A 
ATOM     34  C   LIG d   1      25.768  -5.147  23.643  0.00  0.00     0.011 A 
ATOM     35  C   LIG d   1      26.620  -4.551  22.711  0.00  0.00     0.001 A 
ATOM     36  C   LIG d   1      27.293  -3.388  23.040  0.00  0.00     0.001 A 
ATOM     37  C   LIG d   1      27.089  -2.817  24.291  0.00  0.00     0.007 A 
BRANCH  33  38
ATOM     38  C   LIG d   1      24.641  -5.388  25.905  0.00  0.00     0.078 C 
ATOM     39  C   LIG d   1      23.313  -4.664  26.186  0.00  0.00     0.051 C 
ATOM     40  C   LIG d   1      24.420  -6.839  25.468  0.00  0.00     0.051 C 
BRANCH  38  41
ATOM     41  O   LIG d   1      25.267  -5.502  27.205  0.00  0.00    -0.386 OA
ATOM     42  H   LIG d   1      26.063  -4.944  27.180  0.00  0.00     0.211 HD
ENDBRANCH  38  41
ENDBRANCH  33  38
ENDBRANCH  31  32
ENDBRANCH  30  31
ENDBRANCH   1  30
TORSDOF 13
ENDMDL
