MODEL 1
REMARK VINA RESULT:      -8.3      0.000      0.000
REMARK  9 active torsions:
REMARK  status: ('A' for Active; 'I' for Inactive)
REMARK    1  A    between atoms: N_3  and  C_17 
REMARK    2  A    between atoms: N_4  and  C_18 
REMARK       I    between atoms: N_5  and  C_19 
REMARK       I    between atoms: N_6  and  C_20 
REMARK       I    between atoms: N_7  and  C_19 
REMARK       I    between atoms: N_8  and  C_20 
REMARK       I    between atoms: N_9  and  C_21 
REMARK    3  A    between atoms: N_9  and  C_23 
REMARK       I    between atoms: N_10  and  C_22 
REMARK    4  A    between atoms: N_10  and  C_24 
REMARK       I    between atoms: N_11  and  C_21 
REMARK       I    between atoms: N_12  and  C_22 
REMARK    5  A    between atoms: C_13  and  C_14 
REMARK    6  A    between atoms: C_13  and  C_15 
REMARK    7  A    between atoms: C_14  and  C_16 
REMARK    8  A    between atoms: C_15  and  C_17 
REMARK    9  A    between atoms: C_16  and  C_18 
ROOT
ATOM      1  C   LIG d   1       7.916  11.906   3.691  0.00  0.00     0.002 C 
ENDROOT
BRANCH   1   2
ATOM      2  C   LIG d   1       6.777  10.886   3.717  0.00  0.00     0.002 C 
BRANCH   2   3
ATOM      3  C   LIG d   1       6.392  10.450   2.303  0.00  0.00     0.022 C 
BRANCH   3   4
ATOM      4  C   LIG d   1       4.876  10.443   2.118  0.00  0.00     0.152 C 
BRANCH   4   5
ATOM      5  N   LIG d   1       4.352   9.109   2.394  0.00  0.00    -0.261 NA
ATOM      6  C   LIG d   1       3.771   8.864   3.513  0.00  0.00     0.197 C 
ATOM      7  N   LIG d   1       3.277   7.612   3.725  0.00  0.00    -0.190 NA
ATOM      8  N   LIG d   1       3.534   9.735   4.528  0.00  0.00    -0.271 NA
ATOM      9  C   LIG d   1       3.913   6.557   3.334  0.00  0.00     0.180 C 
ATOM     10  N   LIG d   1       3.493   5.265   3.525  0.00  0.00    -0.331 N 
ATOM     11  N   LIG d   1       5.122   6.532   2.694  0.00  0.00    -0.272 NA
ATOM     12  H   LIG d   1       4.254   4.615   3.663  0.00  0.00     0.168 HD
ATOM     13  H   LIG d   1       5.339   7.477   2.364  0.00  0.00     0.127 HD
ATOM     14  H   LIG d   1       5.107   5.916   1.888  0.00  0.00     0.127 HD
ATOM     15  H   LIG d   1       3.288  10.665   4.228  0.00  0.00     0.127 HD
ATOM     16  H   LIG d   1       2.846   9.345   5.161  0.00  0.00     0.127 HD
BRANCH  10  17
ATOM     17  C   LIG d   1       2.242   4.820   3.988  0.00  0.00     0.034 A 
ATOM     18  C   LIG d   1       2.067   4.581   5.360  0.00  0.00     0.031 A 
ATOM     19  C   LIG d   1       0.847   4.117   5.864  0.00  0.00     0.026 A 
ATOM     20  C   LIG d   1      -0.212   3.876   4.996  0.00  0.00     0.034 A 
ATOM     21 CL   LIG d   1      -1.712   3.300   5.609  0.00  0.00    -0.084 Cl
ATOM     22  C   LIG d   1      -0.059   4.092   3.631  0.00  0.00     0.026 A 
ATOM     23  C   LIG d   1       1.162   4.559   3.134  0.00  0.00     0.031 A 
ENDBRANCH  10  17
ENDBRANCH   4   5
ENDBRANCH   3   4
ENDBRANCH   2   3
ENDBRANCH   1   2
BRANCH   1  24
ATOM     24  C   LIG d   1       7.413  13.311   4.019  0.00  0.00     0.022 C 
BRANCH  24  25
ATOM     25  C   LIG d   1       8.573  14.287   4.208  0.00  0.00     0.152 C 
BRANCH  25  26
ATOM     26  N   LIG d   1       8.646  15.212   3.082  0.00  0.00    -0.261 NA
ATOM     27  C   LIG d   1       9.753  15.377   2.449  0.00  0.00     0.197 C 
ATOM     28  N   LIG d   1       9.796  16.246   1.396  0.00  0.00    -0.190 NA
ATOM     29  N   LIG d   1      10.923  14.724   2.675  0.00  0.00    -0.271 NA
ATOM     30  C   LIG d   1       9.014  17.281   1.322  0.00  0.00     0.180 C 
ATOM     31  N   LIG d   1       9.105  18.069   0.211  0.00  0.00    -0.331 N 
ATOM     32  N   LIG d   1       8.044  17.633   2.210  0.00  0.00    -0.272 NA
ATOM     33  H   LIG d   1       9.776  17.702  -0.456  0.00  0.00     0.168 HD
ATOM     34  H   LIG d   1       7.855  16.850   2.843  0.00  0.00     0.127 HD
ATOM     35  H   LIG d   1       7.193  17.933   1.751  0.00  0.00     0.127 HD
ATOM     36  H   LIG d   1      10.819  13.767   2.977  0.00  0.00     0.127 HD
ATOM     37  H   LIG d   1      11.539  14.816   1.878  0.00  0.00     0.127 HD
BRANCH  31  38
ATOM     38  C   LIG d   1       8.869  19.448   0.038  0.00  0.00     0.034 A 
ATOM     39  C   LIG d   1       9.939  20.333   0.256  0.00  0.00     0.031 A 
ATOM     40  C   LIG d   1       9.796  21.710   0.053  0.00  0.00     0.026 A 
ATOM     41  C   LIG d   1       8.576  22.218  -0.379  0.00  0.00     0.034 A 
ATOM     42 CL   LIG d   1       8.395  23.909  -0.635  0.00  0.00    -0.084 Cl
ATOM     43  C   LIG d   1       7.505  21.362  -0.608  0.00  0.00     0.026 A 
ATOM     44  C   LIG d   1       7.654  19.985  -0.404  0.00  0.00     0.031 A 
ENDBRANCH  31  38
ENDBRANCH  25  26
ENDBRANCH  24  25
ENDBRANCH   1  24
TORSDOF 9
ENDMDL
MODEL 2
REMARK VINA RESULT:      -8.1      7.059     10.916
REMARK  9 active torsions:
REMARK  status: ('A' for Active; 'I' for Inactive)
REMARK    1  A    between atoms: N_3  and  C_17 
REMARK    2  A    between atoms: N_4  and  C_18 
REMARK       I    between atoms: N_5  and  C_19 
REMARK       I    between atoms: N_6  and  C_20 
REMARK       I    between atoms: N_7  and  C_19 
REMARK       I    between atoms: N_8  and  C_20 
REMARK       I    between atoms: N_9  and  C_21 
REMARK    3  A    between atoms: N_9  and  C_23 
REMARK       I    between atoms: N_10  and  C_22 
REMARK    4  A    between atoms: N_10  and  C_24 
REMARK       I    between atoms: N_11  and  C_21 
REMARK       I    between atoms: N_12  and  C_22 
REMARK    5  A    between atoms: C_13  and  C_14 
REMARK    6  A    between atoms: C_13  and  C_15 
REMARK    7  A    between atoms: C_14  and  C_16 
REMARK    8  A    between atoms: C_15  and  C_17 
REMARK    9  A    between atoms: C_16  and  C_18 
ROOT
ATOM      1  C   LIG d   1       6.152  13.249   4.642  0.00  0.00     0.002 C 
ENDROOT
BRANCH   1   2
ATOM      2  C   LIG d   1       5.835  14.316   5.691  0.00  0.00     0.002 C 
BRANCH   2   3
ATOM      3  C   LIG d   1       7.105  14.797   6.393  0.00  0.00     0.022 C 
BRANCH   3   4
ATOM      4  C   LIG d   1       8.354  14.200   5.749  0.00  0.00     0.152 C 
BRANCH   4   5
ATOM      5  N   LIG d   1       9.393  15.222   5.650  0.00  0.00    -0.261 NA
ATOM      6  C   LIG d   1       9.151  16.330   5.047  0.00  0.00     0.197 C 
ATOM      7  N   LIG d   1      10.139  17.266   4.994  0.00  0.00    -0.190 NA
ATOM      8  N   LIG d   1       7.981  16.722   4.478  0.00  0.00    -0.271 NA
ATOM      9  C   LIG d   1      11.375  16.939   4.806  0.00  0.00     0.180 C 
ATOM     10  N   LIG d   1      12.422  17.820   4.721  0.00  0.00    -0.331 N 
ATOM     11  N   LIG d   1      11.857  15.671   4.625  0.00  0.00    -0.272 NA
ATOM     12  H   LIG d   1      13.148  17.517   4.087  0.00  0.00     0.168 HD
ATOM     13  H   LIG d   1      11.129  15.001   4.892  0.00  0.00     0.127 HD
ATOM     14  H   LIG d   1      12.671  15.493   5.203  0.00  0.00     0.127 HD
ATOM     15  H   LIG d   1       7.158  16.438   4.987  0.00  0.00     0.127 HD
ATOM     16  H   LIG d   1       7.999  17.721   4.311  0.00  0.00     0.127 HD
BRANCH  10  17
ATOM     17  C   LIG d   1      12.421  19.197   5.006  0.00  0.00     0.034 A 
ATOM     18  C   LIG d   1      12.156  20.109   3.972  0.00  0.00     0.031 A 
ATOM     19  C   LIG d   1      12.165  21.489   4.204  0.00  0.00     0.026 A 
ATOM     20  C   LIG d   1      12.452  21.973   5.476  0.00  0.00     0.034 A 
ATOM     21 CL   LIG d   1      12.470  23.669   5.765  0.00  0.00    -0.084 Cl
ATOM     22  C   LIG d   1      12.732  21.091   6.513  0.00  0.00     0.026 A 
ATOM     23  C   LIG d   1      12.718  19.713   6.275  0.00  0.00     0.031 A 
ENDBRANCH  10  17
ENDBRANCH   4   5
ENDBRANCH   3   4
ENDBRANCH   2   3
ENDBRANCH   1   2
BRANCH   1  24
ATOM     24  C   LIG d   1       6.174  13.842   3.234  0.00  0.00     0.022 C 
BRANCH  24  25
ATOM     25  C   LIG d   1       7.431  13.421   2.474  0.00  0.00     0.152 C 
BRANCH  25  26
ATOM     26  N   LIG d   1       8.015  14.567   1.783  0.00  0.00    -0.261 NA
ATOM     27  C   LIG d   1       9.265  14.834   1.914  0.00  0.00     0.197 C 
ATOM     28  N   LIG d   1       9.789  15.910   1.256  0.00  0.00    -0.190 NA
ATOM     29  N   LIG d   1      10.181  14.115   2.615  0.00  0.00    -0.271 NA
ATOM     30  C   LIG d   1       9.078  16.958   0.968  0.00  0.00     0.180 C 
ATOM     31  N   LIG d   1       9.682  17.967   0.273  0.00  0.00    -0.331 N 
ATOM     32  N   LIG d   1       7.752  17.135   1.221  0.00  0.00    -0.272 NA
ATOM     33  H   LIG d   1      10.639  17.735   0.031  0.00  0.00     0.168 HD
ATOM     34  H   LIG d   1       7.326  16.239   1.476  0.00  0.00     0.127 HD
ATOM     35  H   LIG d   1       7.263  17.552   0.438  0.00  0.00     0.127 HD
ATOM     36  H   LIG d   1      10.023  13.119   2.615  0.00  0.00     0.127 HD
ATOM     37  H   LIG d   1      11.120  14.361   2.328  0.00  0.00     0.127 HD
BRANCH  31  38
ATOM     38  C   LIG d   1       9.444  19.355   0.274  0.00  0.00     0.034 A 
ATOM     39  C   LIG d   1      10.387  20.186   0.905  0.00  0.00     0.031 A 
ATOM     40  C   LIG d   1      10.247  21.578   0.901  0.00  0.00     0.026 A 
ATOM     41  C   LIG d   1       9.161  22.158   0.256  0.00  0.00     0.034 A 
ATOM     42 CL   LIG d   1       8.986  23.869   0.243  0.00  0.00    -0.084 Cl
ATOM     43  C   LIG d   1       8.219  21.358  -0.383  0.00  0.00     0.026 A 
ATOM     44  C   LIG d   1       8.365  19.966  -0.376  0.00  0.00     0.031 A 
ENDBRANCH  31  38
ENDBRANCH  25  26
ENDBRANCH  24  25
ENDBRANCH   1  24
TORSDOF 9
ENDMDL
MODEL 3
REMARK VINA RESULT:      -8.0     30.202     33.383
REMARK  9 active torsions:
REMARK  status: ('A' for Active; 'I' for Inactive)
REMARK    1  A    between atoms: N_3  and  C_17 
REMARK    2  A    between atoms: N_4  and  C_18 
REMARK       I    between atoms: N_5  and  C_19 
REMARK       I    between atoms: N_6  and  C_20 
REMARK       I    between atoms: N_7  and  C_19 
REMARK       I    between atoms: N_8  and  C_20 
REMARK       I    between atoms: N_9  and  C_21 
REMARK    3  A    between atoms: N_9  and  C_23 
REMARK       I    between atoms: N_10  and  C_22 
REMARK    4  A    between atoms: N_10  and  C_24 
REMARK       I    between atoms: N_11  and  C_21 
REMARK       I    between atoms: N_12  and  C_22 
REMARK    5  A    between atoms: C_13  and  C_14 
REMARK    6  A    between atoms: C_13  and  C_15 
REMARK    7  A    between atoms: C_14  and  C_16 
REMARK    8  A    between atoms: C_15  and  C_17 
REMARK    9  A    between atoms: C_16  and  C_18 
ROOT
ATOM      1  C   LIG d   1      -3.362 -15.123   7.841  0.00  0.00     0.002 C 
ENDROOT
BRANCH   1   2
ATOM      2  C   LIG d   1      -2.548 -14.346   6.804  0.00  0.00     0.002 C 
BRANCH   2   3
ATOM      3  C   LIG d   1      -1.089 -14.801   6.790  0.00  0.00     0.022 C 
BRANCH   3   4
ATOM      4  C   LIG d   1      -0.887 -15.983   5.845  0.00  0.00     0.152 C 
BRANCH   4   5
ATOM      5  N   LIG d   1       0.033 -16.944   6.448  0.00  0.00    -0.261 NA
ATOM      6  C   LIG d   1      -0.419 -18.020   6.983  0.00  0.00     0.197 C 
ATOM      7  N   LIG d   1       0.472 -18.901   7.517  0.00  0.00    -0.190 NA
ATOM      8  N   LIG d   1      -1.713 -18.431   7.045  0.00  0.00    -0.271 NA
ATOM      9  C   LIG d   1       1.510 -18.501   8.175  0.00  0.00     0.180 C 
ATOM     10  N   LIG d   1       2.441 -19.322   8.758  0.00  0.00    -0.331 N 
ATOM     11  N   LIG d   1       1.851 -17.202   8.436  0.00  0.00    -0.272 NA
ATOM     12  H   LIG d   1       2.830 -18.942   9.610  0.00  0.00     0.168 HD
ATOM     13  H   LIG d   1       1.289 -16.588   7.838  0.00  0.00     0.127 HD
ATOM     14  H   LIG d   1       2.828 -17.023   8.236  0.00  0.00     0.127 HD
ATOM     15  H   LIG d   1      -2.254 -18.223   6.219  0.00  0.00     0.127 HD
ATOM     16  H   LIG d   1      -1.749 -19.414   7.285  0.00  0.00     0.127 HD
BRANCH  10  17
ATOM     17  C   LIG d   1       2.583 -20.713   8.610  0.00  0.00     0.034 A 
ATOM     18  C   LIG d   1       1.919 -21.567   9.505  0.00  0.00     0.031 A 
ATOM     19  C   LIG d   1       2.048 -22.957   9.410  0.00  0.00     0.026 A 
ATOM     20  C   LIG d   1       2.855 -23.509   8.422  0.00  0.00     0.034 A 
ATOM     21 CL   LIG d   1       3.021 -25.217   8.304  0.00  0.00    -0.084 Cl
ATOM     22  C   LIG d   1       3.534 -22.684   7.532  0.00  0.00     0.026 A 
ATOM     23  C   LIG d   1       3.399 -21.296   7.631  0.00  0.00     0.031 A 
ENDBRANCH  10  17
ENDBRANCH   4   5
ENDBRANCH   3   4
ENDBRANCH   2   3
ENDBRANCH   1   2
BRANCH   1  24
ATOM     24  C   LIG d   1      -2.856 -14.855   9.258  0.00  0.00     0.022 C 
BRANCH  24  25
ATOM     25  C   LIG d   1      -2.321 -16.131   9.907  0.00  0.00     0.152 C 
BRANCH  25  26
ATOM     26  N   LIG d   1      -2.161 -15.939  11.346  0.00  0.00    -0.261 NA
ATOM     27  C   LIG d   1      -1.051 -16.240  11.919  0.00  0.00     0.197 C 
ATOM     28  N   LIG d   1      -0.923 -16.050  13.266  0.00  0.00    -0.190 NA
ATOM     29  N   LIG d   1       0.079 -16.695  11.316  0.00  0.00    -0.271 NA
ATOM     30  C   LIG d   1      -1.940 -16.111  14.072  0.00  0.00     0.180 C 
ATOM     31  N   LIG d   1      -1.718 -15.867  15.397  0.00  0.00    -0.331 N 
ATOM     32  N   LIG d   1      -3.240 -16.322  13.726  0.00  0.00    -0.272 NA
ATOM     33  H   LIG d   1      -0.750 -15.622  15.577  0.00  0.00     0.168 HD
ATOM     34  H   LIG d   1      -3.351 -16.209  12.715  0.00  0.00     0.127 HD
ATOM     35  H   LIG d   1      -3.874 -15.711  14.226  0.00  0.00     0.127 HD
ATOM     36  H   LIG d   1       0.239 -16.325  10.391  0.00  0.00     0.127 HD
ATOM     37  H   LIG d   1       0.878 -16.578  11.926  0.00  0.00     0.127 HD
BRANCH  31  38
ATOM     38  C   LIG d   1      -2.376 -16.352  16.545  0.00  0.00     0.034 A 
ATOM     39  C   LIG d   1      -2.123 -15.711  17.770  0.00  0.00     0.031 A 
ATOM     40  C   LIG d   1      -2.779 -16.101  18.943  0.00  0.00     0.026 A 
ATOM     41  C   LIG d   1      -3.706 -17.137  18.901  0.00  0.00     0.034 A 
ATOM     42 CL   LIG d   1      -4.519 -17.618  20.338  0.00  0.00    -0.084 Cl
ATOM     43  C   LIG d   1      -3.978 -17.782  17.699  0.00  0.00     0.026 A 
ATOM     44  C   LIG d   1      -3.319 -17.387  16.529  0.00  0.00     0.031 A 
ENDBRANCH  31  38
ENDBRANCH  25  26
ENDBRANCH  24  25
ENDBRANCH   1  24
TORSDOF 9
ENDMDL
MODEL 4
REMARK VINA RESULT:      -8.0      4.614     12.235
REMARK  9 active torsions:
REMARK  status: ('A' for Active; 'I' for Inactive)
REMARK    1  A    between atoms: N_3  and  C_17 
REMARK    2  A    between atoms: N_4  and  C_18 
REMARK       I    between atoms: N_5  and  C_19 
REMARK       I    between atoms: N_6  and  C_20 
REMARK       I    between atoms: N_7  and  C_19 
REMARK       I    between atoms: N_8  and  C_20 
REMARK       I    between atoms: N_9  and  C_21 
REMARK    3  A    between atoms: N_9  and  C_23 
REMARK       I    between atoms: N_10  and  C_22 
REMARK    4  A    between atoms: N_10  and  C_24 
REMARK       I    between atoms: N_11  and  C_21 
REMARK       I    between atoms: N_12  and  C_22 
REMARK    5  A    between atoms: C_13  and  C_14 
REMARK    6  A    between atoms: C_13  and  C_15 
REMARK    7  A    between atoms: C_14  and  C_16 
REMARK    8  A    between atoms: C_15  and  C_17 
REMARK    9  A    between atoms: C_16  and  C_18 
ROOT
ATOM      1  C   LIG d   1       3.424  10.713   3.271  0.00  0.00     0.002 C 
ENDROOT
BRANCH   1   2
ATOM      2  C   LIG d   1       4.719  11.252   2.661  0.00  0.00     0.002 C 
BRANCH   2   3
ATOM      3  C   LIG d   1       5.882  11.147   3.648  0.00  0.00     0.022 C 
BRANCH   3   4
ATOM      4  C   LIG d   1       7.225  11.116   2.922  0.00  0.00     0.152 C 
BRANCH   4   5
ATOM      5  N   LIG d   1       7.734  12.477   2.771  0.00  0.00    -0.261 NA
ATOM      6  C   LIG d   1       7.673  13.064   1.630  0.00  0.00     0.197 C 
ATOM      7  N   LIG d   1       8.139  14.340   1.535  0.00  0.00    -0.190 NA
ATOM      8  N   LIG d   1       7.140  12.578   0.479  0.00  0.00    -0.271 NA
ATOM      9  C   LIG d   1       9.209  14.720   2.154  0.00  0.00     0.180 C 
ATOM     10  N   LIG d   1       9.753  15.977   2.094  0.00  0.00    -0.331 N 
ATOM     11  N   LIG d   1      10.004  13.939   2.947  0.00  0.00    -0.272 NA
ATOM     12  H   LIG d   1      10.761  15.979   2.153  0.00  0.00     0.168 HD
ATOM     13  H   LIG d   1       9.502  13.073   3.165  0.00  0.00     0.127 HD
ATOM     14  H   LIG d   1      10.227  14.399   3.823  0.00  0.00     0.127 HD
ATOM     15  H   LIG d   1       6.306  12.026   0.609  0.00  0.00     0.127 HD
ATOM     16  H   LIG d   1       6.996  13.336  -0.178  0.00  0.00     0.127 HD
BRANCH  10  17
ATOM     17  C   LIG d   1       9.190  17.139   1.535  0.00  0.00     0.034 A 
ATOM     18  C   LIG d   1       8.000  17.650   2.077  0.00  0.00     0.031 A 
ATOM     19  C   LIG d   1       7.392  18.790   1.541  0.00  0.00     0.026 A 
ATOM     20  C   LIG d   1       7.964  19.428   0.445  0.00  0.00     0.034 A 
ATOM     21 CL   LIG d   1       7.217  20.827  -0.221  0.00  0.00    -0.084 Cl
ATOM     22  C   LIG d   1       9.134  18.932  -0.118  0.00  0.00     0.026 A 
ATOM     23  C   LIG d   1       9.739  17.794   0.424  0.00  0.00     0.031 A 
ENDBRANCH  10  17
ENDBRANCH   4   5
ENDBRANCH   3   4
ENDBRANCH   2   3
ENDBRANCH   1   2
BRANCH   1  24
ATOM     24  C   LIG d   1       3.645   9.354   3.934  0.00  0.00     0.022 C 
BRANCH  24  25
ATOM     25  C   LIG d   1       2.570   8.351   3.515  0.00  0.00     0.152 C 
BRANCH  25  26
ATOM     26  N   LIG d   1       1.932   8.780   2.274  0.00  0.00    -0.261 NA
ATOM     27  C   LIG d   1       0.815   8.261   1.907  0.00  0.00     0.197 C 
ATOM     28  N   LIG d   1       0.236   8.680   0.743  0.00  0.00    -0.190 NA
ATOM     29  N   LIG d   1       0.081   7.345   2.591  0.00  0.00    -0.271 NA
ATOM     30  C   LIG d   1       0.936   9.127  -0.256  0.00  0.00     0.180 C 
ATOM     31  N   LIG d   1       0.263   9.560  -1.362  0.00  0.00    -0.331 N 
ATOM     32  N   LIG d   1       2.288   9.285  -0.295  0.00  0.00    -0.272 NA
ATOM     33  H   LIG d   1      -0.742   9.508  -1.235  0.00  0.00     0.168 HD
ATOM     34  H   LIG d   1       2.672   9.212   0.652  0.00  0.00     0.127 HD
ATOM     35  H   LIG d   1       2.560  10.162  -0.723  0.00  0.00     0.127 HD
ATOM     36  H   LIG d   1       0.123   7.437   3.595  0.00  0.00     0.127 HD
ATOM     37  H   LIG d   1      -0.869   7.320   2.242  0.00  0.00     0.127 HD
BRANCH  31  38
ATOM     38  C   LIG d   1       0.637   9.572  -2.721  0.00  0.00     0.034 A 
ATOM     39  C   LIG d   1       1.377  10.671  -3.191  0.00  0.00     0.031 A 
ATOM     40  C   LIG d   1       1.830  10.728  -4.514  0.00  0.00     0.026 A 
ATOM     41  C   LIG d   1       1.553   9.679  -5.382  0.00  0.00     0.034 A 
ATOM     42 CL   LIG d   1       2.111   9.741  -7.008  0.00  0.00    -0.084 Cl
ATOM     43  C   LIG d   1       0.829   8.577  -4.938  0.00  0.00     0.026 A 
ATOM     44  C   LIG d   1       0.379   8.525  -3.614  0.00  0.00     0.031 A 
ENDBRANCH  31  38
ENDBRANCH  25  26
ENDBRANCH  24  25
ENDBRANCH   1  24
TORSDOF 9
ENDMDL
MODEL 5
REMARK VINA RESULT:      -7.8      2.031      2.813
REMARK  9 active torsions:
REMARK  status: ('A' for Active; 'I' for Inactive)
REMARK    1  A    between atoms: N_3  and  C_17 
REMARK    2  A    between atoms: N_4  and  C_18 
REMARK       I    between atoms: N_5  and  C_19 
REMARK       I    between atoms: N_6  and  C_20 
REMARK       I    between atoms: N_7  and  C_19 
REMARK       I    between atoms: N_8  and  C_20 
REMARK       I    between atoms: N_9  and  C_21 
REMARK    3  A    between atoms: N_9  and  C_23 
REMARK       I    between atoms: N_10  and  C_22 
REMARK    4  A    between atoms: N_10  and  C_24 
REMARK       I    between atoms: N_11  and  C_21 
REMARK       I    between atoms: N_12  and  C_22 
REMARK    5  A    between atoms: C_13  and  C_14 
REMARK    6  A    between atoms: C_13  and  C_15 
REMARK    7  A    between atoms: C_14  and  C_16 
REMARK    8  A    between atoms: C_15  and  C_17 
REMARK    9  A    between atoms: C_16  and  C_18 
ROOT
ATOM      1  C   LIG d   1       6.241  15.008   3.668  0.00  0.00     0.002 C 
ENDROOT
BRANCH   1   2
ATOM      2  C   LIG d   1       5.775  14.649   5.080  0.00  0.00     0.002 C 
BRANCH   2   3
ATOM      3  C   LIG d   1       6.426  13.355   5.566  0.00  0.00     0.022 C 
BRANCH   3   4
ATOM      4  C   LIG d   1       5.429  12.486   6.331  0.00  0.00     0.152 C 
BRANCH   4   5
ATOM      5  N   LIG d   1       5.339  11.171   5.703  0.00  0.00    -0.261 NA
ATOM      6  C   LIG d   1       4.640  10.243   6.250  0.00  0.00     0.197 C 
ATOM      7  N   LIG d   1       4.564   9.036   5.623  0.00  0.00    -0.190 NA
ATOM      8  N   LIG d   1       3.901  10.328   7.386  0.00  0.00    -0.271 NA
ATOM      9  C   LIG d   1       5.590   8.509   5.038  0.00  0.00     0.180 C 
ATOM     10  N   LIG d   1       5.600   7.293   4.404  0.00  0.00    -0.331 N 
ATOM     11  N   LIG d   1       6.847   9.045   4.973  0.00  0.00    -0.272 NA
ATOM     12  H   LIG d   1       6.484   6.811   4.481  0.00  0.00     0.168 HD
ATOM     13  H   LIG d   1       6.800  10.030   5.255  0.00  0.00     0.127 HD
ATOM     14  H   LIG d   1       7.222   9.008   4.032  0.00  0.00     0.127 HD
ATOM     15  H   LIG d   1       3.428  11.210   7.509  0.00  0.00     0.127 HD
ATOM     16  H   LIG d   1       3.261   9.544   7.439  0.00  0.00     0.127 HD
BRANCH  10  17
ATOM     17  C   LIG d   1       4.503   6.474   4.085  0.00  0.00     0.034 A 
ATOM     18  C   LIG d   1       3.883   6.619   2.834  0.00  0.00     0.031 A 
ATOM     19  C   LIG d   1       2.775   5.840   2.481  0.00  0.00     0.026 A 
ATOM     20  C   LIG d   1       2.267   4.913   3.384  0.00  0.00     0.034 A 
ATOM     21 CL   LIG d   1       0.902   3.957   2.956  0.00  0.00    -0.084 Cl
ATOM     22  C   LIG d   1       2.855   4.760   4.634  0.00  0.00     0.026 A 
ATOM     23  C   LIG d   1       3.964   5.539   4.980  0.00  0.00     0.031 A 
ENDBRANCH  10  17
ENDBRANCH   4   5
ENDBRANCH   3   4
ENDBRANCH   2   3
ENDBRANCH   1   2
BRANCH   1  24
ATOM     24  C   LIG d   1       6.156  13.803   2.732  0.00  0.00     0.022 C 
BRANCH  24  25
ATOM     25  C   LIG d   1       7.534  13.418   2.196  0.00  0.00     0.152 C 
BRANCH  25  26
ATOM     26  N   LIG d   1       8.225  14.597   1.681  0.00  0.00    -0.261 NA
ATOM     27  C   LIG d   1       9.441  14.836   2.024  0.00  0.00     0.197 C 
ATOM     28  N   LIG d   1      10.067  15.943   1.527  0.00  0.00    -0.190 NA
ATOM     29  N   LIG d   1      10.230  14.060   2.812  0.00  0.00    -0.271 NA
ATOM     30  C   LIG d   1       9.415  17.018   1.199  0.00  0.00     0.180 C 
ATOM     31  N   LIG d   1      10.127  18.059   0.674  0.00  0.00    -0.331 N 
ATOM     32  N   LIG d   1       8.067  17.199   1.251  0.00  0.00    -0.272 NA
ATOM     33  H   LIG d   1      11.109  17.828   0.571  0.00  0.00     0.168 HD
ATOM     34  H   LIG d   1       7.602  16.295   1.377  0.00  0.00     0.127 HD
ATOM     35  H   LIG d   1       7.711  17.671   0.430  0.00  0.00     0.127 HD
ATOM     36  H   LIG d   1      10.069  13.069   2.722  0.00  0.00     0.127 HD
ATOM     37  H   LIG d   1      11.204  14.310   2.692  0.00  0.00     0.127 HD
BRANCH  31  38
ATOM     38  C   LIG d   1       9.899  19.448   0.727  0.00  0.00     0.034 A 
ATOM     39  C   LIG d   1      10.387  20.154   1.841  0.00  0.00     0.031 A 
ATOM     40  C   LIG d   1      10.247  21.543   1.939  0.00  0.00     0.026 A 
ATOM     41  C   LIG d   1       9.620  22.245   0.915  0.00  0.00     0.034 A 
ATOM     42 CL   LIG d   1       9.449  23.953   1.028  0.00  0.00    -0.084 Cl
ATOM     43  C   LIG d   1       9.136  21.570  -0.200  0.00  0.00     0.026 A 
ATOM     44  C   LIG d   1       9.280  20.181  -0.293  0.00  0.00     0.031 A 
ENDBRANCH  31  38
ENDBRANCH  25  26
ENDBRANCH  24  25
ENDBRANCH   1  24
TORSDOF 9
ENDMDL
MODEL 6
REMARK VINA RESULT:      -7.8      5.008      7.295
REMARK  9 active torsions:
REMARK  status: ('A' for Active; 'I' for Inactive)
REMARK    1  A    between atoms: N_3  and  C_17 
REMARK    2  A    between atoms: N_4  and  C_18 
REMARK       I    between atoms: N_5  and  C_19 
REMARK       I    between atoms: N_6  and  C_20 
REMARK       I    between atoms: N_7  and  C_19 
REMARK       I    between atoms: N_8  and  C_20 
REMARK       I    between atoms: N_9  and  C_21 
REMARK    3  A    between atoms: N_9  and  C_23 
REMARK       I    between atoms: N_10  and  C_22 
REMARK    4  A    between atoms: N_10  and  C_24 
REMARK       I    between atoms: N_11  and  C_21 
REMARK       I    between atoms: N_12  and  C_22 
REMARK    5  A    between atoms: C_13  and  C_14 
REMARK    6  A    between atoms: C_13  and  C_15 
REMARK    7  A    between atoms: C_14  and  C_16 
REMARK    8  A    between atoms: C_15  and  C_17 
REMARK    9  A    between atoms: C_16  and  C_18 
ROOT
ATOM      1  C   LIG d   1      11.293  19.131   8.148  0.00  0.00     0.002 C 
ENDROOT
BRANCH   1   2
ATOM      2  C   LIG d   1      10.415  17.885   8.270  0.00  0.00     0.002 C 
BRANCH   2   3
ATOM      3  C   LIG d   1       9.932  17.410   6.900  0.00  0.00     0.022 C 
BRANCH   3   4
ATOM      4  C   LIG d   1      10.811  16.283   6.362  0.00  0.00     0.152 C 
BRANCH   4   5
ATOM      5  N   LIG d   1      10.073  15.518   5.361  0.00  0.00    -0.261 NA
ATOM      6  C   LIG d   1       9.503  14.413   5.685  0.00  0.00     0.197 C 
ATOM      7  N   LIG d   1       8.807  13.740   4.728  0.00  0.00    -0.190 NA
ATOM      8  N   LIG d   1       9.463  13.835   6.914  0.00  0.00    -0.271 NA
ATOM      9  C   LIG d   1       9.232  13.659   3.510  0.00  0.00     0.180 C 
ATOM     10  N   LIG d   1       8.601  12.986   2.495  0.00  0.00    -0.331 N 
ATOM     11  N   LIG d   1      10.391  14.197   3.021  0.00  0.00    -0.272 NA
ATOM     12  H   LIG d   1       9.241  12.576   1.830  0.00  0.00     0.168 HD
ATOM     13  H   LIG d   1      10.757  14.867   3.705  0.00  0.00     0.127 HD
ATOM     14  H   LIG d   1      10.236  14.693   2.150  0.00  0.00     0.127 HD
ATOM     15  H   LIG d   1       9.371  14.488   7.677  0.00  0.00     0.127 HD
ATOM     16  H   LIG d   1       8.743  13.123   6.934  0.00  0.00     0.127 HD
BRANCH  10  17
ATOM     17  C   LIG d   1       7.311  12.426   2.498  0.00  0.00     0.034 A 
ATOM     18  C   LIG d   1       7.162  11.052   2.747  0.00  0.00     0.031 A 
ATOM     19  C   LIG d   1       5.901  10.447   2.739  0.00  0.00     0.026 A 
ATOM     20  C   LIG d   1       4.770  11.212   2.468  0.00  0.00     0.034 A 
ATOM     21 CL   LIG d   1       3.218  10.471   2.451  0.00  0.00    -0.084 Cl
ATOM     22  C   LIG d   1       4.893  12.571   2.205  0.00  0.00     0.026 A 
ATOM     23  C   LIG d   1       6.156  13.170   2.218  0.00  0.00     0.031 A 
ENDBRANCH  10  17
ENDBRANCH   4   5
ENDBRANCH   3   4
ENDBRANCH   2   3
ENDBRANCH   1   2
BRANCH   1  24
ATOM     24  C   LIG d   1      12.745  18.762   7.851  0.00  0.00     0.022 C 
BRANCH  24  25
ATOM     25  C   LIG d   1      13.360  19.710   6.823  0.00  0.00     0.152 C 
BRANCH  25  26
ATOM     26  N   LIG d   1      12.544  19.744   5.612  0.00  0.00    -0.261 NA
ATOM     27  C   LIG d   1      12.887  19.057   4.581  0.00  0.00     0.197 C 
ATOM     28  N   LIG d   1      12.106  19.102   3.461  0.00  0.00    -0.190 NA
ATOM     29  N   LIG d   1      13.948  18.214   4.482  0.00  0.00    -0.271 NA
ATOM     30  C   LIG d   1      11.391  20.144   3.159  0.00  0.00     0.180 C 
ATOM     31  N   LIG d   1      10.612  20.077   2.039  0.00  0.00    -0.331 N 
ATOM     32  N   LIG d   1      11.271  21.287   3.887  0.00  0.00    -0.272 NA
ATOM     33  H   LIG d   1      10.670  19.168   1.594  0.00  0.00     0.168 HD
ATOM     34  H   LIG d   1      11.649  21.139   4.828  0.00  0.00     0.127 HD
ATOM     35  H   LIG d   1      10.314  21.613   3.936  0.00  0.00     0.127 HD
ATOM     36  H   LIG d   1      14.177  17.724   5.333  0.00  0.00     0.127 HD
ATOM     37  H   LIG d   1      13.832  17.591   3.693  0.00  0.00     0.127 HD
BRANCH  31  38
ATOM     38  C   LIG d   1      10.186  21.088   1.153  0.00  0.00     0.034 A 
ATOM     39  C   LIG d   1       9.003  20.872   0.426  0.00  0.00     0.031 A 
ATOM     40  C   LIG d   1       8.489  21.851  -0.432  0.00  0.00     0.026 A 
ATOM     41  C   LIG d   1       9.153  23.065  -0.567  0.00  0.00     0.034 A 
ATOM     42 CL   LIG d   1       8.524  24.273  -1.616  0.00  0.00    -0.084 Cl
ATOM     43  C   LIG d   1      10.322  23.305   0.148  0.00  0.00     0.026 A 
ATOM     44  C   LIG d   1      10.831  22.322   1.005  0.00  0.00     0.031 A 
ENDBRANCH  31  38
ENDBRANCH  25  26
ENDBRANCH  24  25
ENDBRANCH   1  24
TORSDOF 9
ENDMDL
MODEL 7
REMARK VINA RESULT:      -7.8      1.618      2.266
REMARK  9 active torsions:
REMARK  status: ('A' for Active; 'I' for Inactive)
REMARK    1  A    between atoms: N_3  and  C_17 
REMARK    2  A    between atoms: N_4  and  C_18 
REMARK       I    between atoms: N_5  and  C_19 
REMARK       I    between atoms: N_6  and  C_20 
REMARK       I    between atoms: N_7  and  C_19 
REMARK       I    between atoms: N_8  and  C_20 
REMARK       I    between atoms: N_9  and  C_21 
REMARK    3  A    between atoms: N_9  and  C_23 
REMARK       I    between atoms: N_10  and  C_22 
REMARK    4  A    between atoms: N_10  and  C_24 
REMARK       I    between atoms: N_11  and  C_21 
REMARK       I    between atoms: N_12  and  C_22 
REMARK    5  A    between atoms: C_13  and  C_14 
REMARK    6  A    between atoms: C_13  and  C_15 
REMARK    7  A    between atoms: C_14  and  C_16 
REMARK    8  A    between atoms: C_15  and  C_17 
REMARK    9  A    between atoms: C_16  and  C_18 
ROOT
ATOM      1  C   LIG d   1       6.729  13.886   5.653  0.00  0.00     0.002 C 
ENDROOT
BRANCH   1   2
ATOM      2  C   LIG d   1       6.871  13.058   4.375  0.00  0.00     0.002 C 
BRANCH   2   3
ATOM      3  C   LIG d   1       7.126  11.585   4.694  0.00  0.00     0.022 C 
BRANCH   3   4
ATOM      4  C   LIG d   1       7.052  10.725   3.435  0.00  0.00     0.152 C 
BRANCH   4   5
ATOM      5  N   LIG d   1       5.883   9.852   3.502  0.00  0.00    -0.261 NA
ATOM      6  C   LIG d   1       5.318   9.449   2.421  0.00  0.00     0.197 C 
ATOM      7  N   LIG d   1       4.242   8.621   2.525  0.00  0.00    -0.190 NA
ATOM      8  N   LIG d   1       5.697   9.713   1.144  0.00  0.00    -0.271 NA
ATOM      9  C   LIG d   1       3.344   8.785   3.441  0.00  0.00     0.180 C 
ATOM     10  N   LIG d   1       2.226   8.007   3.599  0.00  0.00    -0.331 N 
ATOM     11  N   LIG d   1       3.328   9.771   4.389  0.00  0.00    -0.272 NA
ATOM     12  H   LIG d   1       1.428   8.522   3.944  0.00  0.00     0.168 HD
ATOM     13  H   LIG d   1       4.248  10.220   4.412  0.00  0.00     0.127 HD
ATOM     14  H   LIG d   1       3.139   9.399   5.313  0.00  0.00     0.127 HD
ATOM     15  H   LIG d   1       6.695   9.734   1.003  0.00  0.00     0.127 HD
ATOM     16  H   LIG d   1       5.237   9.070   0.510  0.00  0.00     0.127 HD
BRANCH  10  17
ATOM     17  C   LIG d   1       1.917   6.793   2.961  0.00  0.00     0.034 A 
ATOM     18  C   LIG d   1       2.379   5.591   3.519  0.00  0.00     0.031 A 
ATOM     19  C   LIG d   1       2.115   4.360   2.908  0.00  0.00     0.026 A 
ATOM     20  C   LIG d   1       1.392   4.320   1.720  0.00  0.00     0.034 A 
ATOM     21 CL   LIG d   1       1.070   2.810   0.962  0.00  0.00    -0.084 Cl
ATOM     22  C   LIG d   1       0.936   5.498   1.141  0.00  0.00     0.026 A 
ATOM     23  C   LIG d   1       1.200   6.725   1.758  0.00  0.00     0.031 A 
ENDBRANCH  10  17
ENDBRANCH   4   5
ENDBRANCH   3   4
ENDBRANCH   2   3
ENDBRANCH   1   2
BRANCH   1  24
ATOM     24  C   LIG d   1       7.703  15.064   5.664  0.00  0.00     0.022 C 
BRANCH  24  25
ATOM     25  C   LIG d   1       8.914  14.791   4.773  0.00  0.00     0.152 C 
BRANCH  25  26
ATOM     26  N   LIG d   1       8.850  15.610   3.566  0.00  0.00    -0.261 NA
ATOM     27  C   LIG d   1       9.785  15.541   2.686  0.00  0.00     0.197 C 
ATOM     28  N   LIG d   1       9.702  16.315   1.564  0.00  0.00    -0.190 NA
ATOM     29  N   LIG d   1      10.867  14.719   2.713  0.00  0.00    -0.271 NA
ATOM     30  C   LIG d   1       9.086  17.458   1.556  0.00  0.00     0.180 C 
ATOM     31  N   LIG d   1       9.023  18.139   0.374  0.00  0.00    -0.331 N 
ATOM     32  N   LIG d   1       8.419  18.029   2.596  0.00  0.00    -0.272 NA
ATOM     33  H   LIG d   1       9.453  17.619  -0.383  0.00  0.00     0.168 HD
ATOM     34  H   LIG d   1       8.274  17.336   3.336  0.00  0.00     0.127 HD
ATOM     35  H   LIG d   1       7.536  18.434   2.310  0.00  0.00     0.127 HD
ATOM     36  H   LIG d   1      10.699  13.817   3.132  0.00  0.00     0.127 HD
ATOM     37  H   LIG d   1      11.281  14.650   1.792  0.00  0.00     0.127 HD
BRANCH  31  38
ATOM     38  C   LIG d   1       8.957  19.522   0.112  0.00  0.00     0.034 A 
ATOM     39  C   LIG d   1      10.101  20.298   0.367  0.00  0.00     0.031 A 
ATOM     40  C   LIG d   1      10.129  21.667   0.082  0.00  0.00     0.026 A 
ATOM     41  C   LIG d   1       9.010  22.278  -0.472  0.00  0.00     0.034 A 
ATOM     42 CL   LIG d   1       9.040  23.960  -0.829  0.00  0.00    -0.084 Cl
ATOM     43  C   LIG d   1       7.868  21.530  -0.741  0.00  0.00     0.026 A 
ATOM     44  C   LIG d   1       7.846  20.161  -0.454  0.00  0.00     0.031 A 
ENDBRANCH  31  38
ENDBRANCH  25  26
ENDBRANCH  24  25
ENDBRANCH   1  24
TORSDOF 9
ENDMDL
MODEL 8
REMARK VINA RESULT:      -7.8      1.621      2.203
REMARK  9 active torsions:
REMARK  status: ('A' for Active; 'I' for Inactive)
REMARK    1  A    between atoms: N_3  and  C_17 
REMARK    2  A    between atoms: N_4  and  C_18 
REMARK       I    between atoms: N_5  and  C_19 
REMARK       I    between atoms: N_6  and  C_20 
REMARK       I    between atoms: N_7  and  C_19 
REMARK       I    between atoms: N_8  and  C_20 
REMARK       I    between atoms: N_9  and  C_21 
REMARK    3  A    between atoms: N_9  and  C_23 
REMARK       I    between atoms: N_10  and  C_22 
REMARK    4  A    between atoms: N_10  and  C_24 
REMARK       I    between atoms: N_11  and  C_21 
REMARK       I    between atoms: N_12  and  C_22 
REMARK    5  A    between atoms: C_13  and  C_14 
REMARK    6  A    between atoms: C_13  and  C_15 
REMARK    7  A    between atoms: C_14  and  C_16 
REMARK    8  A    between atoms: C_15  and  C_17 
REMARK    9  A    between atoms: C_16  and  C_18 
ROOT
ATOM      1  C   LIG d   1       5.725  12.046   4.201  0.00  0.00     0.002 C 
ENDROOT
BRANCH   1   2
ATOM      2  C   LIG d   1       5.383  10.597   3.851  0.00  0.00     0.002 C 
BRANCH   2   3
ATOM      3  C   LIG d   1       6.386   9.625   4.472  0.00  0.00     0.022 C 
BRANCH   3   4
ATOM      4  C   LIG d   1       5.682   8.581   5.337  0.00  0.00     0.152 C 
BRANCH   4   5
ATOM      5  N   LIG d   1       4.551   8.017   4.605  0.00  0.00    -0.261 NA
ATOM      6  C   LIG d   1       4.568   6.784   4.245  0.00  0.00     0.197 C 
ATOM      7  N   LIG d   1       3.485   6.289   3.583  0.00  0.00    -0.190 NA
ATOM      8  N   LIG d   1       5.538   5.865   4.492  0.00  0.00    -0.271 NA
ATOM      9  C   LIG d   1       2.858   6.986   2.692  0.00  0.00     0.180 C 
ATOM     10  N   LIG d   1       1.775   6.554   1.970  0.00  0.00    -0.331 N 
ATOM     11  N   LIG d   1       3.174   8.254   2.288  0.00  0.00    -0.272 NA
ATOM     12  H   LIG d   1       1.744   6.931   1.033  0.00  0.00     0.168 HD
ATOM     13  H   LIG d   1       3.838   8.656   2.957  0.00  0.00     0.127 HD
ATOM     14  H   LIG d   1       2.357   8.853   2.259  0.00  0.00     0.127 HD
ATOM     15  H   LIG d   1       5.965   5.947   5.401  0.00  0.00     0.127 HD
ATOM     16  H   LIG d   1       5.178   4.933   4.323  0.00  0.00     0.127 HD
BRANCH  10  17
ATOM     17  C   LIG d   1       1.013   5.389   2.165  0.00  0.00     0.034 A 
ATOM     18  C   LIG d   1       1.224   4.285   1.324  0.00  0.00     0.031 A 
ATOM     19  C   LIG d   1       0.474   3.112   1.466  0.00  0.00     0.026 A 
ATOM     20  C   LIG d   1      -0.508   3.035   2.449  0.00  0.00     0.034 A 
ATOM     21 CL   LIG d   1      -1.436   1.598   2.624  0.00  0.00    -0.084 Cl
ATOM     22  C   LIG d   1      -0.745   4.120   3.285  0.00  0.00     0.026 A 
ATOM     23  C   LIG d   1       0.010   5.288   3.139  0.00  0.00     0.031 A 
ENDBRANCH  10  17
ENDBRANCH   4   5
ENDBRANCH   3   4
ENDBRANCH   2   3
ENDBRANCH   1   2
BRANCH   1  24
ATOM     24  C   LIG d   1       6.814  12.598   3.282  0.00  0.00     0.022 C 
BRANCH  24  25
ATOM     25  C   LIG d   1       7.632  13.684   3.980  0.00  0.00     0.152 C 
BRANCH  25  26
ATOM     26  N   LIG d   1       8.119  14.657   3.006  0.00  0.00    -0.261 NA
ATOM     27  C   LIG d   1       9.356  14.660   2.658  0.00  0.00     0.197 C 
ATOM     28  N   LIG d   1       9.788  15.578   1.743  0.00  0.00    -0.190 NA
ATOM     29  N   LIG d   1      10.318  13.792   3.066  0.00  0.00    -0.271 NA
ATOM     30  C   LIG d   1       9.223  16.740   1.610  0.00  0.00     0.180 C 
ATOM     31  N   LIG d   1       9.702  17.574   0.640  0.00  0.00    -0.331 N 
ATOM     32  N   LIG d   1       8.139  17.200   2.293  0.00  0.00    -0.272 NA
ATOM     33  H   LIG d   1      10.444  17.138   0.103  0.00  0.00     0.168 HD
ATOM     34  H   LIG d   1       7.682  16.423   2.779  0.00  0.00     0.127 HD
ATOM     35  H   LIG d   1       7.482  17.681   1.691  0.00  0.00     0.127 HD
ATOM     36  H   LIG d   1       9.993  12.851   3.231  0.00  0.00     0.127 HD
ATOM     37  H   LIG d   1      11.114  13.825   2.441  0.00  0.00     0.127 HD
BRANCH  31  38
ATOM     38  C   LIG d   1       9.738  18.981   0.571  0.00  0.00     0.034 A 
ATOM     39  C   LIG d   1      10.660  19.658   1.389  0.00  0.00     0.031 A 
ATOM     40  C   LIG d   1      10.792  21.050   1.337  0.00  0.00     0.026 A 
ATOM     41  C   LIG d   1      10.004  21.783   0.457  0.00  0.00     0.034 A 
ATOM     42 CL   LIG d   1      10.164  23.493   0.386  0.00  0.00    -0.084 Cl
ATOM     43  C   LIG d   1       9.090  21.135  -0.367  0.00  0.00     0.026 A 
ATOM     44  C   LIG d   1       8.963  19.743  -0.312  0.00  0.00     0.031 A 
ENDBRANCH  31  38
ENDBRANCH  25  26
ENDBRANCH  24  25
ENDBRANCH   1  24
TORSDOF 9
ENDMDL
MODEL 9
REMARK VINA RESULT:      -7.6      7.551     10.601
REMARK  9 active torsions:
REMARK  status: ('A' for Active; 'I' for Inactive)
REMARK    1  A    between atoms: N_3  and  C_17 
REMARK    2  A    between atoms: N_4  and  C_18 
REMARK       I    between atoms: N_5  and  C_19 
REMARK       I    between atoms: N_6  and  C_20 
REMARK       I    between atoms: N_7  and  C_19 
REMARK       I    between atoms: N_8  and  C_20 
REMARK       I    between atoms: N_9  and  C_21 
REMARK    3  A    between atoms: N_9  and  C_23 
REMARK       I    between atoms: N_10  and  C_22 
REMARK    4  A    between atoms: N_10  and  C_24 
REMARK       I    between atoms: N_11  and  C_21 
REMARK       I    between atoms: N_12  and  C_22 
REMARK    5  A    between atoms: C_13  and  C_14 
REMARK    6  A    between atoms: C_13  and  C_15 
REMARK    7  A    between atoms: C_14  and  C_16 
REMARK    8  A    between atoms: C_15  and  C_17 
REMARK    9  A    between atoms: C_16  and  C_18 
ROOT
ATOM      1  C   LIG d   1       9.929  23.361   2.729  0.00  0.00     0.002 C 
ENDROOT
BRANCH   1   2
ATOM      2  C   LIG d   1       9.298  23.839   1.421  0.00  0.00     0.002 C 
BRANCH   2   3
ATOM      3  C   LIG d   1       8.990  22.664   0.493  0.00  0.00     0.022 C 
BRANCH   3   4
ATOM      4  C   LIG d   1       7.816  21.838   1.016  0.00  0.00     0.152 C 
BRANCH   4   5
ATOM      5  N   LIG d   1       8.196  20.429   1.081  0.00  0.00    -0.261 NA
ATOM      6  C   LIG d   1       8.204  19.817   2.210  0.00  0.00     0.197 C 
ATOM      7  N   LIG d   1       8.544  18.498   2.227  0.00  0.00    -0.190 NA
ATOM      8  N   LIG d   1       7.858  20.319   3.424  0.00  0.00    -0.271 NA
ATOM      9  C   LIG d   1       9.491  18.031   1.481  0.00  0.00     0.180 C 
ATOM     10  N   LIG d   1       9.905  16.724   1.455  0.00  0.00    -0.331 N 
ATOM     11  N   LIG d   1      10.268  18.752   0.615  0.00  0.00    -0.272 NA
ATOM     12  H   LIG d   1      10.895  16.623   1.279  0.00  0.00     0.168 HD
ATOM     13  H   LIG d   1       9.836  19.671   0.474  0.00  0.00     0.127 HD
ATOM     14  H   LIG d   1      10.341  18.299  -0.288  0.00  0.00     0.127 HD
ATOM     15  H   LIG d   1       7.077  20.956   3.402  0.00  0.00     0.127 HD
ATOM     16  H   LIG d   1       7.713  19.561   4.080  0.00  0.00     0.127 HD
BRANCH  10  17
ATOM     17  C   LIG d   1       9.293  15.609   2.053  0.00  0.00     0.034 A 
ATOM     18  C   LIG d   1       7.914  15.410   1.876  0.00  0.00     0.031 A 
ATOM     19  C   LIG d   1       7.257  14.327   2.470  0.00  0.00     0.026 A 
ATOM     20  C   LIG d   1       7.973  13.434   3.261  0.00  0.00     0.034 A 
ATOM     21 CL   LIG d   1       7.169  12.104   3.997  0.00  0.00    -0.084 Cl
ATOM     22  C   LIG d   1       9.336  13.618   3.463  0.00  0.00     0.026 A 
ATOM     23  C   LIG d   1       9.987  14.701   2.864  0.00  0.00     0.031 A 
ENDBRANCH  10  17
ENDBRANCH   4   5
ENDBRANCH   3   4
ENDBRANCH   2   3
ENDBRANCH   1   2
BRANCH   1  24
ATOM     24  C   LIG d   1      11.018  22.320   2.474  0.00  0.00     0.022 C 
BRANCH  24  25
ATOM     25  C   LIG d   1      11.884  22.107   3.715  0.00  0.00     0.152 C 
BRANCH  25  26
ATOM     26  N   LIG d   1      11.612  20.799   4.305  0.00  0.00    -0.261 NA
ATOM     27  C   LIG d   1      12.035  19.729   3.731  0.00  0.00     0.197 C 
ATOM     28  N   LIG d   1      11.771  18.518   4.303  0.00  0.00    -0.190 NA
ATOM     29  N   LIG d   1      12.791  19.656   2.604  0.00  0.00    -0.271 NA
ATOM     30  C   LIG d   1      10.718  18.314   5.036  0.00  0.00     0.180 C 
ATOM     31  N   LIG d   1      10.562  17.079   5.597  0.00  0.00    -0.331 N 
ATOM     32  N   LIG d   1       9.774  19.234   5.375  0.00  0.00    -0.272 NA
ATOM     33  H   LIG d   1      11.345  16.469   5.387  0.00  0.00     0.168 HD
ATOM     34  H   LIG d   1      10.114  20.175   5.158  0.00  0.00     0.127 HD
ATOM     35  H   LIG d   1       9.506  19.168   6.350  0.00  0.00     0.127 HD
ATOM     36  H   LIG d   1      13.450  20.411   2.490  0.00  0.00     0.127 HD
ATOM     37  H   LIG d   1      13.225  18.745   2.527  0.00  0.00     0.127 HD
BRANCH  31  38
ATOM     38  C   LIG d   1       9.397  16.365   5.941  0.00  0.00     0.034 A 
ATOM     39  C   LIG d   1       8.171  16.812   5.418  0.00  0.00     0.031 A 
ATOM     40  C   LIG d   1       6.979  16.124   5.671  0.00  0.00     0.026 A 
ATOM     41  C   LIG d   1       7.002  14.971   6.448  0.00  0.00     0.034 A 
ATOM     42 CL   LIG d   1       5.541  14.118   6.758  0.00  0.00    -0.084 Cl
ATOM     43  C   LIG d   1       8.204  14.505   6.970  0.00  0.00     0.026 A 
ATOM     44  C   LIG d   1       9.393  15.197   6.713  0.00  0.00     0.031 A 
ENDBRANCH  31  38
ENDBRANCH  25  26
ENDBRANCH  24  25
ENDBRANCH   1  24
TORSDOF 9
ENDMDL
