REMARK  9 active torsions:
REMARK  status: ('A' for Active; 'I' for Inactive)
REMARK    1  A    between atoms: N_3  and  C_17 
REMARK    2  A    between atoms: N_4  and  C_18 
REMARK       I    between atoms: N_5  and  C_19 
REMARK       I    between atoms: N_6  and  C_20 
REMARK       I    between atoms: N_7  and  C_19 
REMARK       I    between atoms: N_8  and  C_20 
REMARK       I    between atoms: N_9  and  C_21 
REMARK    3  A    between atoms: N_9  and  C_23 
REMARK       I    between atoms: N_10  and  C_22 
REMARK    4  A    between atoms: N_10  and  C_24 
REMARK       I    between atoms: N_11  and  C_21 
REMARK       I    between atoms: N_12  and  C_22 
REMARK    5  A    between atoms: C_13  and  C_14 
REMARK    6  A    between atoms: C_13  and  C_15 
REMARK    7  A    between atoms: C_14  and  C_16 
REMARK    8  A    between atoms: C_15  and  C_17 
REMARK    9  A    between atoms: C_16  and  C_18 
ROOT
ATOM      1  C   LIG d   1      -2.131  12.647  -9.951  0.00  0.00     0.002 C 
ENDROOT
BRANCH   1   2
ATOM      2  C   LIG d   1      -2.440  12.510  -8.459  0.00  0.00     0.002 C 
BRANCH   2   3
ATOM      3  C   LIG d   1      -2.091  13.790  -7.701  0.00  0.00     0.022 C 
BRANCH   3   4
ATOM      4  C   LIG d   1      -2.298  15.026  -8.574  0.00  0.00     0.152 C 
BRANCH   4   5
ATOM      5  N   LIG d   1      -1.004  15.610  -8.916  0.00  0.00    -0.261 NA
ATOM      6  C   LIG d   1      -0.916  16.859  -9.200  0.00  0.00     0.197 C 
ATOM      7  N   LIG d   1       0.311  17.371  -9.494  0.00  0.00    -0.190 NA
ATOM      8  N   LIG d   1      -1.917  17.778  -9.198  0.00  0.00    -0.271 NA
ATOM      9  C   LIG d   1       1.170  16.711 -10.199  0.00  0.00     0.180 C 
ATOM     10  N   LIG d   1       2.416  17.163 -10.554  0.00  0.00    -0.331 N 
ATOM     11  N   LIG d   1       0.986  15.469 -10.744  0.00  0.00    -0.272 NA
ATOM     12  H   LIG d   1       2.717  16.833 -11.459  0.00  0.00     0.168 HD
ATOM     13  H   LIG d   1       0.158  15.043 -10.318  0.00  0.00     0.127 HD
ATOM     14  H   LIG d   1       1.777  14.861 -10.565  0.00  0.00     0.127 HD
ATOM     15  H   LIG d   1      -2.590  17.657  -8.457  0.00  0.00     0.127 HD
ATOM     16  H   LIG d   1      -1.525  18.712  -9.206  0.00  0.00     0.127 HD
BRANCH  10  17
ATOM     17  C   LIG d   1       3.088  18.306 -10.086  0.00  0.00     0.034 A 
ATOM     18  C   LIG d   1       2.976  18.658  -8.731  0.00  0.00     0.031 A 
ATOM     19  C   LIG d   1       3.609  19.798  -8.225  0.00  0.00     0.026 A 
ATOM     20  C   LIG d   1       4.355  20.608  -9.074  0.00  0.00     0.034 A 
ATOM     21 CL   LIG d   1       5.131  22.014  -8.458  0.00  0.00    -0.084 Cl
ATOM     22  C   LIG d   1       4.469  20.289 -10.422  0.00  0.00     0.026 A 
ATOM     23  C   LIG d   1       3.836  19.146 -10.921  0.00  0.00     0.031 A 
ENDBRANCH  10  17
ENDBRANCH   4   5
ENDBRANCH   3   4
ENDBRANCH   2   3
ENDBRANCH   1   2
BRANCH   1  24
ATOM     24  C   LIG d   1      -1.175  11.553 -10.424  0.00  0.00     0.022 C 
BRANCH  24  25
ATOM     25  C   LIG d   1      -0.079  12.124 -11.322  0.00  0.00     0.152 C 
BRANCH  25  26
ATOM     26  N   LIG d   1       0.856  12.923 -10.535  0.00  0.00    -0.261 NA
ATOM     27  C   LIG d   1       1.990  12.432 -10.181  0.00  0.00     0.197 C 
ATOM     28  N   LIG d   1       2.849  13.199  -9.447  0.00  0.00    -0.190 NA
ATOM     29  N   LIG d   1       2.482  11.208 -10.506  0.00  0.00    -0.271 NA
ATOM     30  C   LIG d   1       2.430  14.130  -8.643  0.00  0.00     0.180 C 
ATOM     31  N   LIG d   1       3.368  14.870  -7.983  0.00  0.00    -0.331 N 
ATOM     32  N   LIG d   1       1.138  14.506  -8.439  0.00  0.00    -0.272 NA
ATOM     33  H   LIG d   1       4.311  14.607  -8.250  0.00  0.00     0.168 HD
ATOM     34  H   LIG d   1       0.542  14.107  -9.170  0.00  0.00     0.127 HD
ATOM     35  H   LIG d   1       1.032  15.513  -8.403  0.00  0.00     0.127 HD
ATOM     36  H   LIG d   1       2.216  10.877 -11.421  0.00  0.00     0.127 HD
ATOM     37  H   LIG d   1       3.483  11.178 -10.358  0.00  0.00     0.127 HD
BRANCH  31  38
ATOM     38  C   LIG d   1       3.319  15.510  -6.728  0.00  0.00     0.034 A 
ATOM     39  C   LIG d   1       4.506  16.074  -6.228  0.00  0.00     0.031 A 
ATOM     40  C   LIG d   1       4.524  16.772  -5.016  0.00  0.00     0.026 A 
ATOM     41  C   LIG d   1       3.347  16.919  -4.289  0.00  0.00     0.034 A 
ATOM     42 CL   LIG d   1       3.362  17.779  -2.800  0.00  0.00    -0.084 Cl
ATOM     43  C   LIG d   1       2.159  16.376  -4.766  0.00  0.00     0.026 A 
ATOM     44  C   LIG d   1       2.148  15.680  -5.981  0.00  0.00     0.031 A 
ENDBRANCH  31  38
ENDBRANCH  25  26
ENDBRANCH  24  25
ENDBRANCH   1  24
TORSDOF 9
