MODEL 1
REMARK minimizedAffinity -5.66878033REMARK CNNscore 0.550849378REMARK CNNaffinity 5.04609585REMARK  9 active torsions:
REMARK  status: ('A' for Active; 'I' for Inactive)
REMARK    1  A    between atoms: N_3  and  C_17 
REMARK    2  A    between atoms: N_4  and  C_18 
REMARK       I    between atoms: N_5  and  C_19 
REMARK       I    between atoms: N_6  and  C_20 
REMARK       I    between atoms: N_7  and  C_19 
REMARK       I    between atoms: N_8  and  C_20 
REMARK       I    between atoms: N_9  and  C_21 
REMARK    3  A    between atoms: N_9  and  C_23 
REMARK       I    between atoms: N_10  and  C_22 
REMARK    4  A    between atoms: N_10  and  C_24 
REMARK       I    between atoms: N_11  and  C_21 
REMARK       I    between atoms: N_12  and  C_22 
REMARK    5  A    between atoms: C_13  and  C_14 
REMARK    6  A    between atoms: C_13  and  C_15 
REMARK    7  A    between atoms: C_14  and  C_16 
REMARK    8  A    between atoms: C_15  and  C_17 
REMARK    9  A    between atoms: C_16  and  C_18 
ROOT
ATOM      1  C   LIG d   1      15.835  -2.344 -13.723  0.00  0.00     0.002 C 
ENDROOT
BRANCH   1   2
ATOM      2  C   LIG d   1      15.751  -3.870 -13.768  0.00  0.00     0.002 C 
BRANCH   2   3
ATOM      3  C   LIG d   1      15.291  -4.360 -15.141  0.00  0.00     0.022 C 
BRANCH   3   4
ATOM      4  C   LIG d   1      13.768  -4.455 -15.214  0.00  0.00     0.152 C 
BRANCH   4   5
ATOM      5  N   LIG d   1      13.335  -5.778 -14.772  0.00  0.00    -0.261 NA
ATOM      6  C   LIG d   1      12.227  -6.268 -15.198  0.00  0.00     0.197 C 
ATOM      7  N   LIG d   1      11.868  -7.513 -14.779  0.00  0.00    -0.190 NA
ATOM      8  N   LIG d   1      11.361  -5.706 -16.080  0.00  0.00    -0.271 NA
ATOM      9  C   LIG d   1      12.069  -7.905 -13.563  0.00  0.00     0.180 C 
ATOM     10  N   LIG d   1      11.720  -9.132 -13.060  0.00  0.00    -0.331 N 
ATOM     11  N   LIG d   1      12.631  -7.166 -12.558  0.00  0.00    -0.272 NA
ATOM     12  H   LIG d   1      11.449  -9.102 -12.087  0.00  0.00     0.168 HD
ATOM     13  H   LIG d   1      13.079  -6.340 -12.968  0.00  0.00     0.127 HD
ATOM     14  H   LIG d   1      13.341  -7.690 -12.059  0.00  0.00     0.127 HD
ATOM     15  H   LIG d   1      11.804  -5.198 -16.830  0.00  0.00     0.127 HD
ATOM     16  H   LIG d   1      10.719  -6.409 -16.425  0.00  0.00     0.127 HD
BRANCH  10  17
ATOM     17  C   LIG d   1      11.269 -10.261 -13.766  0.00  0.00     0.034 A 
ATOM     18  C   LIG d   1       9.905 -10.374 -14.076  0.00  0.00     0.031 A 
ATOM     19  C   LIG d   1       9.407 -11.489 -14.758  0.00  0.00     0.026 A 
ATOM     20  C   LIG d   1      10.271 -12.514 -15.128  0.00  0.00     0.034 A 
ATOM     21 CL   LIG d   1       9.663 -13.891 -15.962  0.00  0.00    -0.084 Cl
ATOM     22  C   LIG d   1      11.624 -12.433 -14.820  0.00  0.00     0.026 A 
ATOM     23  C   LIG d   1      12.116 -11.314 -14.141  0.00  0.00     0.031 A 
ENDBRANCH  10  17
ENDBRANCH   4   5
ENDBRANCH   3   4
ENDBRANCH   2   3
ENDBRANCH   1   2
BRANCH   1  24
ATOM     24  C   LIG d   1      16.371  -1.778 -15.038  0.00  0.00     0.022 C 
BRANCH  24  25
ATOM     25  C   LIG d   1      15.703  -0.447 -15.382  0.00  0.00     0.152 C 
BRANCH  25  26
ATOM     26  N   LIG d   1      16.624   0.660 -15.140  0.00  0.00    -0.261 NA
ATOM     27  C   LIG d   1      16.326   1.848 -15.531  0.00  0.00     0.197 C 
ATOM     28  N   LIG d   1      17.202   2.867 -15.291  0.00  0.00    -0.190 NA
ATOM     29  N   LIG d   1      15.173   2.239 -16.133  0.00  0.00    -0.271 NA
ATOM     30  C   LIG d   1      18.484   2.672 -15.203  0.00  0.00     0.180 C 
ATOM     31  N   LIG d   1      19.274   3.749 -14.921  0.00  0.00    -0.331 N 
ATOM     32  N   LIG d   1      19.132   1.478 -15.290  0.00  0.00    -0.272 NA
ATOM     33  H   LIG d   1      18.726   4.589 -14.773  0.00  0.00     0.168 HD
ATOM     34  H   LIG d   1      18.456   0.712 -15.213  0.00  0.00     0.127 HD
ATOM     35  H   LIG d   1      19.858   1.383 -14.590  0.00  0.00     0.127 HD
ATOM     36  H   LIG d   1      14.350   1.743 -15.828  0.00  0.00     0.127 HD
ATOM     37  H   LIG d   1      15.066   3.244 -16.074  0.00  0.00     0.127 HD
BRANCH  31  38
ATOM     38  C   LIG d   1      20.609   4.029 -15.277  0.00  0.00     0.034 A 
ATOM     39  C   LIG d   1      21.560   4.126 -14.246  0.00  0.00     0.031 A 
ATOM     40  C   LIG d   1      22.913   4.348 -14.524  0.00  0.00     0.026 A 
ATOM     41  C   LIG d   1      23.332   4.470 -15.844  0.00  0.00     0.034 A 
ATOM     42 CL   LIG d   1      24.995   4.739 -16.193  0.00  0.00    -0.084 Cl
ATOM     43  C   LIG d   1      22.412   4.371 -16.882  0.00  0.00     0.026 A 
ATOM     44  C   LIG d   1      21.060   4.148 -16.597  0.00  0.00     0.031 A 
ENDBRANCH  31  38
ENDBRANCH  25  26
ENDBRANCH  24  25
ENDBRANCH   1  24
TORSDOF 9
ENDMDL
MODEL 2
REMARK minimizedAffinity -6.26091862REMARK CNNscore 0.438477099REMARK CNNaffinity 4.86800909REMARK  9 active torsions:
REMARK  status: ('A' for Active; 'I' for Inactive)
REMARK    1  A    between atoms: N_3  and  C_17 
REMARK    2  A    between atoms: N_4  and  C_18 
REMARK       I    between atoms: N_5  and  C_19 
REMARK       I    between atoms: N_6  and  C_20 
REMARK       I    between atoms: N_7  and  C_19 
REMARK       I    between atoms: N_8  and  C_20 
REMARK       I    between atoms: N_9  and  C_21 
REMARK    3  A    between atoms: N_9  and  C_23 
REMARK       I    between atoms: N_10  and  C_22 
REMARK    4  A    between atoms: N_10  and  C_24 
REMARK       I    between atoms: N_11  and  C_21 
REMARK       I    between atoms: N_12  and  C_22 
REMARK    5  A    between atoms: C_13  and  C_14 
REMARK    6  A    between atoms: C_13  and  C_15 
REMARK    7  A    between atoms: C_14  and  C_16 
REMARK    8  A    between atoms: C_15  and  C_17 
REMARK    9  A    between atoms: C_16  and  C_18 
ROOT
ATOM      1  C   LIG d   1      22.931  12.088   9.074  0.00  0.00     0.002 C 
ENDROOT
BRANCH   1   2
ATOM      2  C   LIG d   1      22.765  13.519   8.560  0.00  0.00     0.002 C 
BRANCH   2   3
ATOM      3  C   LIG d   1      24.079  14.062   8.000  0.00  0.00     0.022 C 
BRANCH   3   4
ATOM      4  C   LIG d   1      23.892  14.620   6.590  0.00  0.00     0.152 C 
BRANCH   4   5
ATOM      5  N   LIG d   1      23.742  13.520   5.642  0.00  0.00    -0.261 NA
ATOM      6  C   LIG d   1      22.654  13.392   4.971  0.00  0.00     0.197 C 
ATOM      7  N   LIG d   1      22.560  12.366   4.081  0.00  0.00    -0.190 NA
ATOM      8  N   LIG d   1      21.566  14.206   5.001  0.00  0.00    -0.271 NA
ATOM      9  C   LIG d   1      23.040  11.194   4.343  0.00  0.00     0.180 C 
ATOM     10  N   LIG d   1      22.969  10.107   3.511  0.00  0.00    -0.331 N 
ATOM     11  N   LIG d   1      23.671  10.818   5.498  0.00  0.00    -0.272 NA
ATOM     12  H   LIG d   1      22.884   9.230   4.006  0.00  0.00     0.168 HD
ATOM     13  H   LIG d   1      23.912  11.661   6.029  0.00  0.00     0.127 HD
ATOM     14  H   LIG d   1      24.529  10.313   5.309  0.00  0.00     0.127 HD
ATOM     15  H   LIG d   1      21.784  15.186   5.089  0.00  0.00     0.127 HD
ATOM     16  H   LIG d   1      20.976  14.018   4.199  0.00  0.00     0.127 HD
BRANCH  10  17
ATOM     17  C   LIG d   1      22.557  10.070   2.167  0.00  0.00     0.034 A 
ATOM     18  C   LIG d   1      21.188   9.968   1.874  0.00  0.00     0.031 A 
ATOM     19  C   LIG d   1      20.733   9.906   0.552  0.00  0.00     0.026 A 
ATOM     20  C   LIG d   1      21.648   9.935  -0.495  0.00  0.00     0.034 A 
ATOM     21 CL   LIG d   1      21.094   9.854  -2.122  0.00  0.00    -0.084 Cl
ATOM     22  C   LIG d   1      23.010  10.021  -0.230  0.00  0.00     0.026 A 
ATOM     23  C   LIG d   1      23.458  10.085   1.093  0.00  0.00     0.031 A 
ENDBRANCH  10  17
ENDBRANCH   4   5
ENDBRANCH   3   4
ENDBRANCH   2   3
ENDBRANCH   1   2
BRANCH   1  24
ATOM     24  C   LIG d   1      21.993  11.807  10.248  0.00  0.00     0.022 C 
BRANCH  24  25
ATOM     25  C   LIG d   1      22.279  10.442  10.872  0.00  0.00     0.152 C 
BRANCH  25  26
ATOM     26  N   LIG d   1      22.315  10.548  12.328  0.00  0.00    -0.261 NA
ATOM     27  C   LIG d   1      21.222  10.565  13.003  0.00  0.00     0.197 C 
ATOM     28  N   LIG d   1      21.281  10.662  14.364  0.00  0.00    -0.190 NA
ATOM     29  N   LIG d   1      19.961  10.439  12.512  0.00  0.00    -0.271 NA
ATOM     30  C   LIG d   1      22.259  11.263  14.973  0.00  0.00     0.180 C 
ATOM     31  N   LIG d   1      22.249  11.273  16.339  0.00  0.00    -0.331 N 
ATOM     32  N   LIG d   1      23.352  11.830  14.392  0.00  0.00    -0.272 NA
ATOM     33  H   LIG d   1      21.463  10.752  16.712  0.00  0.00     0.168 HD
ATOM     34  H   LIG d   1      23.419  11.530  13.415  0.00  0.00     0.127 HD
ATOM     35  H   LIG d   1      24.207  11.615  14.890  0.00  0.00     0.127 HD
ATOM     36  H   LIG d   1      19.880   9.832  11.711  0.00  0.00     0.127 HD
ATOM     37  H   LIG d   1      19.316  10.195  13.253  0.00  0.00     0.127 HD
BRANCH  31  38
ATOM     38  C   LIG d   1      22.763  12.211  17.255  0.00  0.00     0.034 A 
ATOM     39  C   LIG d   1      23.939  11.880  17.950  0.00  0.00     0.031 A 
ATOM     40  C   LIG d   1      24.538  12.782  18.836  0.00  0.00     0.026 A 
ATOM     41  C   LIG d   1      23.968  14.035  19.033  0.00  0.00     0.034 A 
ATOM     42 CL   LIG d   1      24.702  15.149  20.117  0.00  0.00    -0.084 Cl
ATOM     43  C   LIG d   1      22.808  14.389  18.352  0.00  0.00     0.026 A 
ATOM     44  C   LIG d   1      22.214  13.482  17.466  0.00  0.00     0.031 A 
ENDBRANCH  31  38
ENDBRANCH  25  26
ENDBRANCH  24  25
ENDBRANCH   1  24
TORSDOF 9
ENDMDL
MODEL 3
REMARK minimizedAffinity -4.87119293REMARK CNNscore 0.419387281REMARK CNNaffinity 5.48777246REMARK  9 active torsions:
REMARK  status: ('A' for Active; 'I' for Inactive)
REMARK    1  A    between atoms: N_3  and  C_17 
REMARK    2  A    between atoms: N_4  and  C_18 
REMARK       I    between atoms: N_5  and  C_19 
REMARK       I    between atoms: N_6  and  C_20 
REMARK       I    between atoms: N_7  and  C_19 
REMARK       I    between atoms: N_8  and  C_20 
REMARK       I    between atoms: N_9  and  C_21 
REMARK    3  A    between atoms: N_9  and  C_23 
REMARK       I    between atoms: N_10  and  C_22 
REMARK    4  A    between atoms: N_10  and  C_24 
REMARK       I    between atoms: N_11  and  C_21 
REMARK       I    between atoms: N_12  and  C_22 
REMARK    5  A    between atoms: C_13  and  C_14 
REMARK    6  A    between atoms: C_13  and  C_15 
REMARK    7  A    between atoms: C_14  and  C_16 
REMARK    8  A    between atoms: C_15  and  C_17 
REMARK    9  A    between atoms: C_16  and  C_18 
ROOT
ATOM      1  C   LIG d   1      23.977  11.780  10.098  0.00  0.00     0.002 C 
ENDROOT
BRANCH   1   2
ATOM      2  C   LIG d   1      23.663  12.020   8.621  0.00  0.00     0.002 C 
BRANCH   2   3
ATOM      3  C   LIG d   1      22.183  12.339   8.414  0.00  0.00     0.022 C 
BRANCH   3   4
ATOM      4  C   LIG d   1      21.982  13.802   8.021  0.00  0.00     0.152 C 
BRANCH   4   5
ATOM      5  N   LIG d   1      21.904  14.628   9.222  0.00  0.00    -0.261 NA
ATOM      6  C   LIG d   1      22.125  15.891   9.150  0.00  0.00     0.197 C 
ATOM      7  N   LIG d   1      22.024  16.631  10.289  0.00  0.00    -0.190 NA
ATOM      8  N   LIG d   1      22.410  16.617   8.038  0.00  0.00    -0.271 NA
ATOM      9  C   LIG d   1      22.448  16.188  11.427  0.00  0.00     0.180 C 
ATOM     10  N   LIG d   1      22.399  16.877  12.612  0.00  0.00    -0.331 N 
ATOM     11  N   LIG d   1      23.046  14.978  11.651  0.00  0.00    -0.272 NA
ATOM     12  H   LIG d   1      23.177  16.674  13.223  0.00  0.00     0.168 HD
ATOM     13  H   LIG d   1      22.899  14.381  10.831  0.00  0.00     0.127 HD
ATOM     14  H   LIG d   1      22.647  14.506  12.455  0.00  0.00     0.127 HD
ATOM     15  H   LIG d   1      21.910  16.324   7.212  0.00  0.00     0.127 HD
ATOM     16  H   LIG d   1      22.281  17.603   8.230  0.00  0.00     0.127 HD
BRANCH  10  17
ATOM     17  C   LIG d   1      21.728  18.081  12.886  0.00  0.00     0.034 A 
ATOM     18  C   LIG d   1      20.365  18.044  13.219  0.00  0.00     0.031 A 
ATOM     19  C   LIG d   1      19.650  19.219  13.479  0.00  0.00     0.026 A 
ATOM     20  C   LIG d   1      20.292  20.450  13.397  0.00  0.00     0.034 A 
ATOM     21 CL   LIG d   1      19.417  21.897  13.710  0.00  0.00    -0.084 Cl
ATOM     22  C   LIG d   1      21.638  20.514  13.055  0.00  0.00     0.026 A 
ATOM     23  C   LIG d   1      22.348  19.336  12.800  0.00  0.00     0.031 A 
ENDBRANCH  10  17
ENDBRANCH   4   5
ENDBRANCH   3   4
ENDBRANCH   2   3
ENDBRANCH   1   2
BRANCH   1  24
ATOM     24  C   LIG d   1      23.947  10.290  10.438  0.00  0.00     0.022 C 
BRANCH  24  25
ATOM     25  C   LIG d   1      22.639   9.905  11.129  0.00  0.00     0.152 C 
BRANCH  25  26
ATOM     26  N   LIG d   1      22.515  10.602  12.405  0.00  0.00    -0.261 NA
ATOM     27  C   LIG d   1      21.358  10.776  12.939  0.00  0.00     0.197 C 
ATOM     28  N   LIG d   1      21.268  11.429  14.135  0.00  0.00    -0.190 NA
ATOM     29  N   LIG d   1      20.168  10.324  12.463  0.00  0.00    -0.271 NA
ATOM     30  C   LIG d   1      22.131  12.330  14.498  0.00  0.00     0.180 C 
ATOM     31  N   LIG d   1      21.977  12.898  15.730  0.00  0.00    -0.331 N 
ATOM     32  N   LIG d   1      23.235  12.723  13.806  0.00  0.00    -0.272 NA
ATOM     33  H   LIG d   1      21.196  12.495  16.235  0.00  0.00     0.168 HD
ATOM     34  H   LIG d   1      23.425  12.058  13.051  0.00  0.00     0.127 HD
ATOM     35  H   LIG d   1      24.046  12.826  14.403  0.00  0.00     0.127 HD
ATOM     36  H   LIG d   1      20.216   9.437  11.987  0.00  0.00     0.127 HD
ATOM     37  H   LIG d   1      19.468  10.337  13.194  0.00  0.00     0.127 HD
BRANCH  31  38
ATOM     38  C   LIG d   1      22.323  14.180  16.201  0.00  0.00     0.034 A 
ATOM     39  C   LIG d   1      23.445  14.295  17.040  0.00  0.00     0.031 A 
ATOM     40  C   LIG d   1      23.882  15.540  17.504  0.00  0.00     0.026 A 
ATOM     41  C   LIG d   1      23.202  16.692  17.126  0.00  0.00     0.034 A 
ATOM     42 CL   LIG d   1      23.736  18.227  17.689  0.00  0.00    -0.084 Cl
ATOM     43  C   LIG d   1      22.093  16.606  16.290  0.00  0.00     0.026 A 
ATOM     44  C   LIG d   1      21.662  15.357  15.829  0.00  0.00     0.031 A 
ENDBRANCH  31  38
ENDBRANCH  25  26
ENDBRANCH  24  25
ENDBRANCH   1  24
TORSDOF 9
ENDMDL
MODEL 4
REMARK minimizedAffinity -6.03529263REMARK CNNscore 0.408120394REMARK CNNaffinity 5.83933163REMARK  9 active torsions:
REMARK  status: ('A' for Active; 'I' for Inactive)
REMARK    1  A    between atoms: N_3  and  C_17 
REMARK    2  A    between atoms: N_4  and  C_18 
REMARK       I    between atoms: N_5  and  C_19 
REMARK       I    between atoms: N_6  and  C_20 
REMARK       I    between atoms: N_7  and  C_19 
REMARK       I    between atoms: N_8  and  C_20 
REMARK       I    between atoms: N_9  and  C_21 
REMARK    3  A    between atoms: N_9  and  C_23 
REMARK       I    between atoms: N_10  and  C_22 
REMARK    4  A    between atoms: N_10  and  C_24 
REMARK       I    between atoms: N_11  and  C_21 
REMARK       I    between atoms: N_12  and  C_22 
REMARK    5  A    between atoms: C_13  and  C_14 
REMARK    6  A    between atoms: C_13  and  C_15 
REMARK    7  A    between atoms: C_14  and  C_16 
REMARK    8  A    between atoms: C_15  and  C_17 
REMARK    9  A    between atoms: C_16  and  C_18 
ROOT
ATOM      1  C   LIG d   1      20.784  -3.835  -4.490  0.00  0.00     0.002 C 
ENDROOT
BRANCH   1   2
ATOM      2  C   LIG d   1      20.365  -4.728  -3.322  0.00  0.00     0.002 C 
BRANCH   2   3
ATOM      3  C   LIG d   1      18.981  -4.344  -2.799  0.00  0.00     0.022 C 
BRANCH   3   4
ATOM      4  C   LIG d   1      17.944  -5.412  -3.140  0.00  0.00     0.152 C 
BRANCH   4   5
ATOM      5  N   LIG d   1      17.254  -5.053  -4.376  0.00  0.00    -0.261 NA
ATOM      6  C   LIG d   1      17.031  -5.945  -5.272  0.00  0.00     0.197 C 
ATOM      7  N   LIG d   1      16.367  -5.575  -6.402  0.00  0.00    -0.190 NA
ATOM      8  N   LIG d   1      17.338  -7.267  -5.214  0.00  0.00    -0.271 NA
ATOM      9  C   LIG d   1      16.588  -4.439  -6.977  0.00  0.00     0.180 C 
ATOM     10  N   LIG d   1      15.977  -4.002  -8.125  0.00  0.00    -0.331 N 
ATOM     11  N   LIG d   1      17.485  -3.488  -6.572  0.00  0.00    -0.272 NA
ATOM     12  H   LIG d   1      16.576  -3.428  -8.702  0.00  0.00     0.168 HD
ATOM     13  H   LIG d   1      17.788  -3.707  -5.618  0.00  0.00     0.127 HD
ATOM     14  H   LIG d   1      17.071  -2.562  -6.563  0.00  0.00     0.127 HD
ATOM     15  H   LIG d   1      17.221  -7.681  -4.302  0.00  0.00     0.127 HD
ATOM     16  H   LIG d   1      16.825  -7.770  -5.929  0.00  0.00     0.127 HD
BRANCH  10  17
ATOM     17  C   LIG d   1      14.880  -4.572  -8.793  0.00  0.00     0.034 A 
ATOM     18  C   LIG d   1      15.016  -4.939 -10.142  0.00  0.00     0.031 A 
ATOM     19  C   LIG d   1      13.945  -5.490 -10.854  0.00  0.00     0.026 A 
ATOM     20  C   LIG d   1      12.717  -5.670 -10.224  0.00  0.00     0.034 A 
ATOM     21 CL   LIG d   1      11.396  -6.343 -11.097  0.00  0.00    -0.084 Cl
ATOM     22  C   LIG d   1      12.554  -5.303  -8.894  0.00  0.00     0.026 A 
ATOM     23  C   LIG d   1      13.629  -4.755  -8.187  0.00  0.00     0.031 A 
ENDBRANCH  10  17
ENDBRANCH   4   5
ENDBRANCH   3   4
ENDBRANCH   2   3
ENDBRANCH   1   2
BRANCH   1  24
ATOM     24  C   LIG d   1      21.995  -2.976  -4.127  0.00  0.00     0.022 C 
BRANCH  24  25
ATOM     25  C   LIG d   1      22.325  -1.983  -5.241  0.00  0.00     0.152 C 
BRANCH  25  26
ATOM     26  N   LIG d   1      21.429  -0.832  -5.176  0.00  0.00    -0.261 NA
ATOM     27  C   LIG d   1      20.864  -0.391  -6.243  0.00  0.00     0.197 C 
ATOM     28  N   LIG d   1      20.028   0.685  -6.158  0.00  0.00    -0.190 NA
ATOM     29  N   LIG d   1      20.960  -0.919  -7.492  0.00  0.00    -0.271 NA
ATOM     30  C   LIG d   1      20.169   1.601  -5.247  0.00  0.00     0.180 C 
ATOM     31  N   LIG d   1      19.258   2.618  -5.219  0.00  0.00    -0.331 N 
ATOM     32  N   LIG d   1      21.098   1.620  -4.252  0.00  0.00    -0.272 NA
ATOM     33  H   LIG d   1      18.537   2.496  -5.921  0.00  0.00     0.168 HD
ATOM     34  H   LIG d   1      21.542   0.701  -4.175  0.00  0.00     0.127 HD
ATOM     35  H   LIG d   1      20.703   1.900  -3.362  0.00  0.00     0.127 HD
ATOM     36  H   LIG d   1      21.044  -1.923  -7.518  0.00  0.00     0.127 HD
ATOM     37  H   LIG d   1      20.210  -0.575  -8.080  0.00  0.00     0.127 HD
BRANCH  31  38
ATOM     38  C   LIG d   1      19.388   3.957  -4.802  0.00  0.00     0.034 A 
ATOM     39  C   LIG d   1      20.074   4.848  -5.646  0.00  0.00     0.031 A 
ATOM     40  C   LIG d   1      20.197   6.204  -5.326  0.00  0.00     0.026 A 
ATOM     41  C   LIG d   1      19.625   6.689  -4.155  0.00  0.00     0.034 A 
ATOM     42 CL   LIG d   1      19.769   8.356  -3.758  0.00  0.00    -0.084 Cl
ATOM     43  C   LIG d   1      18.935   5.830  -3.307  0.00  0.00     0.026 A 
ATOM     44  C   LIG d   1      18.815   4.474  -3.633  0.00  0.00     0.031 A 
ENDBRANCH  31  38
ENDBRANCH  25  26
ENDBRANCH  24  25
ENDBRANCH   1  24
TORSDOF 9
ENDMDL
MODEL 5
REMARK minimizedAffinity -6.14618397REMARK CNNscore 0.389496833REMARK CNNaffinity 6.04400492REMARK  9 active torsions:
REMARK  status: ('A' for Active; 'I' for Inactive)
REMARK    1  A    between atoms: N_3  and  C_17 
REMARK    2  A    between atoms: N_4  and  C_18 
REMARK       I    between atoms: N_5  and  C_19 
REMARK       I    between atoms: N_6  and  C_20 
REMARK       I    between atoms: N_7  and  C_19 
REMARK       I    between atoms: N_8  and  C_20 
REMARK       I    between atoms: N_9  and  C_21 
REMARK    3  A    between atoms: N_9  and  C_23 
REMARK       I    between atoms: N_10  and  C_22 
REMARK    4  A    between atoms: N_10  and  C_24 
REMARK       I    between atoms: N_11  and  C_21 
REMARK       I    between atoms: N_12  and  C_22 
REMARK    5  A    between atoms: C_13  and  C_14 
REMARK    6  A    between atoms: C_13  and  C_15 
REMARK    7  A    between atoms: C_14  and  C_16 
REMARK    8  A    between atoms: C_15  and  C_17 
REMARK    9  A    between atoms: C_16  and  C_18 
ROOT
ATOM      1  C   LIG d   1      12.625  20.379   7.539  0.00  0.00     0.002 C 
ENDROOT
BRANCH   1   2
ATOM      2  C   LIG d   1      11.422  20.568   8.464  0.00  0.00     0.002 C 
BRANCH   2   3
ATOM      3  C   LIG d   1      10.857  19.223   8.920  0.00  0.00     0.022 C 
BRANCH   3   4
ATOM      4  C   LIG d   1       9.549  18.899   8.201  0.00  0.00     0.152 C 
BRANCH   4   5
ATOM      5  N   LIG d   1       9.751  17.770   7.297  0.00  0.00    -0.261 NA
ATOM      6  C   LIG d   1       9.202  16.637   7.548  0.00  0.00     0.197 C 
ATOM      7  N   LIG d   1       9.398  15.614   6.670  0.00  0.00    -0.190 NA
ATOM      8  N   LIG d   1       8.383  16.330   8.588  0.00  0.00    -0.271 NA
ATOM      9  C   LIG d   1      10.542  15.417   6.102  0.00  0.00     0.180 C 
ATOM     10  N   LIG d   1      10.824  14.402   5.224  0.00  0.00    -0.331 N 
ATOM     11  N   LIG d   1      11.678  16.155   6.294  0.00  0.00    -0.272 NA
ATOM     12  H   LIG d   1      11.775  14.069   5.291  0.00  0.00     0.168 HD
ATOM     13  H   LIG d   1      11.427  17.025   6.775  0.00  0.00     0.127 HD
ATOM     14  H   LIG d   1      12.118  16.402   5.415  0.00  0.00     0.127 HD
ATOM     15  H   LIG d   1       7.746  17.067   8.846  0.00  0.00     0.127 HD
ATOM     16  H   LIG d   1       7.900  15.460   8.397  0.00  0.00     0.127 HD
BRANCH  10  17
ATOM     17  C   LIG d   1       9.925  13.509   4.615  0.00  0.00     0.034 A 
ATOM     18  C   LIG d   1       9.341  13.858   3.387  0.00  0.00     0.031 A 
ATOM     19  C   LIG d   1       8.424  13.010   2.755  0.00  0.00     0.026 A 
ATOM     20  C   LIG d   1       8.073  11.804   3.352  0.00  0.00     0.034 A 
ATOM     21 CL   LIG d   1       6.943  10.762   2.582  0.00  0.00    -0.084 Cl
ATOM     22  C   LIG d   1       8.627  11.443   4.575  0.00  0.00     0.026 A 
ATOM     23  C   LIG d   1       9.545  12.293   5.200  0.00  0.00     0.031 A 
ENDBRANCH  10  17
ENDBRANCH   4   5
ENDBRANCH   3   4
ENDBRANCH   2   3
ENDBRANCH   1   2
BRANCH   1  24
ATOM     24  C   LIG d   1      12.201  20.367   6.070  0.00  0.00     0.022 C 
BRANCH  24  25
ATOM     25  C   LIG d   1      13.143  21.213   5.214  0.00  0.00     0.152 C 
BRANCH  25  26
ATOM     26  N   LIG d   1      12.528  21.507   3.923  0.00  0.00    -0.261 NA
ATOM     27  C   LIG d   1      12.694  22.657   3.373  0.00  0.00     0.197 C 
ATOM     28  N   LIG d   1      12.111  22.908   2.164  0.00  0.00    -0.190 NA
ATOM     29  N   LIG d   1      13.454  23.680   3.844  0.00  0.00    -0.271 NA
ATOM     30  C   LIG d   1      11.010  22.325   1.793  0.00  0.00     0.180 C 
ATOM     31  N   LIG d   1      10.527  22.612   0.548  0.00  0.00    -0.331 N 
ATOM     32  N   LIG d   1      10.312  21.388   2.490  0.00  0.00    -0.272 NA
ATOM     33  H   LIG d   1      11.140  23.241   0.042  0.00  0.00     0.168 HD
ATOM     34  H   LIG d   1      10.886  21.031   3.259  0.00  0.00     0.127 HD
ATOM     35  H   LIG d   1       9.995  20.628   1.900  0.00  0.00     0.127 HD
ATOM     36  H   LIG d   1      14.285  23.394   4.338  0.00  0.00     0.127 HD
ATOM     37  H   LIG d   1      13.650  24.344   3.105  0.00  0.00     0.127 HD
BRANCH  31  38
ATOM     38  C   LIG d   1       9.206  22.632   0.057  0.00  0.00     0.034 A 
ATOM     39  C   LIG d   1       8.347  23.647   0.512  0.00  0.00     0.031 A 
ATOM     40  C   LIG d   1       7.040  23.764   0.029  0.00  0.00     0.026 A 
ATOM     41  C   LIG d   1       6.577  22.866  -0.926  0.00  0.00     0.034 A 
ATOM     42 CL   LIG d   1       4.971  23.006  -1.527  0.00  0.00    -0.084 Cl
ATOM     43  C   LIG d   1       7.409  21.857  -1.398  0.00  0.00     0.026 A 
ATOM     44  C   LIG d   1       8.717  21.746  -0.911  0.00  0.00     0.031 A 
ENDBRANCH  31  38
ENDBRANCH  25  26
ENDBRANCH  24  25
ENDBRANCH   1  24
TORSDOF 9
ENDMDL
MODEL 6
REMARK minimizedAffinity -5.89428282REMARK CNNscore 0.376950204REMARK CNNaffinity 5.54222393REMARK  9 active torsions:
REMARK  status: ('A' for Active; 'I' for Inactive)
REMARK    1  A    between atoms: N_3  and  C_17 
REMARK    2  A    between atoms: N_4  and  C_18 
REMARK       I    between atoms: N_5  and  C_19 
REMARK       I    between atoms: N_6  and  C_20 
REMARK       I    between atoms: N_7  and  C_19 
REMARK       I    between atoms: N_8  and  C_20 
REMARK       I    between atoms: N_9  and  C_21 
REMARK    3  A    between atoms: N_9  and  C_23 
REMARK       I    between atoms: N_10  and  C_22 
REMARK    4  A    between atoms: N_10  and  C_24 
REMARK       I    between atoms: N_11  and  C_21 
REMARK       I    between atoms: N_12  and  C_22 
REMARK    5  A    between atoms: C_13  and  C_14 
REMARK    6  A    between atoms: C_13  and  C_15 
REMARK    7  A    between atoms: C_14  and  C_16 
REMARK    8  A    between atoms: C_15  and  C_17 
REMARK    9  A    between atoms: C_16  and  C_18 
ROOT
ATOM      1  C   LIG d   1      14.169  -2.927 -12.893  0.00  0.00     0.002 C 
ENDROOT
BRANCH   1   2
ATOM      2  C   LIG d   1      15.006  -1.698 -13.247  0.00  0.00     0.002 C 
BRANCH   2   3
ATOM      3  C   LIG d   1      14.147  -0.609 -13.891  0.00  0.00     0.022 C 
BRANCH   3   4
ATOM      4  C   LIG d   1      14.744  -0.146 -15.218  0.00  0.00     0.152 C 
BRANCH   4   5
ATOM      5  N   LIG d   1      16.183   0.049 -15.070  0.00  0.00    -0.261 NA
ATOM      6  C   LIG d   1      16.752   1.073 -15.598  0.00  0.00     0.197 C 
ATOM      7  N   LIG d   1      18.093   1.231 -15.420  0.00  0.00    -0.190 NA
ATOM      8  N   LIG d   1      16.160   2.078 -16.293  0.00  0.00    -0.271 NA
ATOM      9  C   LIG d   1      18.905   0.226 -15.455  0.00  0.00     0.180 C 
ATOM     10  N   LIG d   1      20.266   0.304 -15.305  0.00  0.00    -0.331 N 
ATOM     11  N   LIG d   1      18.566  -1.081 -15.678  0.00  0.00    -0.272 NA
ATOM     12  H   LIG d   1      20.768  -0.383 -15.851  0.00  0.00     0.168 HD
ATOM     13  H   LIG d   1      17.550  -1.177 -15.583  0.00  0.00     0.127 HD
ATOM     14  H   LIG d   1      19.002  -1.702 -15.006  0.00  0.00     0.127 HD
ATOM     15  H   LIG d   1      15.256   2.352 -15.939  0.00  0.00     0.127 HD
ATOM     16  H   LIG d   1      16.794   2.865 -16.365  0.00  0.00     0.127 HD
BRANCH  10  17
ATOM     17  C   LIG d   1      21.031   1.411 -14.898  0.00  0.00     0.034 A 
ATOM     18  C   LIG d   1      21.159   1.686 -13.527  0.00  0.00     0.031 A 
ATOM     19  C   LIG d   1      21.892   2.790 -13.076  0.00  0.00     0.026 A 
ATOM     20  C   LIG d   1      22.497   3.640 -13.996  0.00  0.00     0.034 A 
ATOM     21 CL   LIG d   1      23.394   5.001 -13.446  0.00  0.00    -0.084 Cl
ATOM     22  C   LIG d   1      22.372   3.397 -15.358  0.00  0.00     0.026 A 
ATOM     23  C   LIG d   1      21.641   2.290 -15.803  0.00  0.00     0.031 A 
ENDBRANCH  10  17
ENDBRANCH   4   5
ENDBRANCH   3   4
ENDBRANCH   2   3
ENDBRANCH   1   2
BRANCH   1  24
ATOM     24  C   LIG d   1      12.673  -2.622 -12.969  0.00  0.00     0.022 C 
BRANCH  24  25
ATOM     25  C   LIG d   1      11.904  -3.331 -11.855  0.00  0.00     0.152 C 
BRANCH  25  26
ATOM     26  N   LIG d   1      12.820  -3.764 -10.803  0.00  0.00    -0.261 NA
ATOM     27  C   LIG d   1      12.489  -4.719 -10.009  0.00  0.00     0.197 C 
ATOM     28  N   LIG d   1      13.364  -5.109  -9.035  0.00  0.00    -0.190 NA
ATOM     29  N   LIG d   1      11.349  -5.456 -10.056  0.00  0.00    -0.271 NA
ATOM     30  C   LIG d   1      14.221  -4.288  -8.506  0.00  0.00     0.180 C 
ATOM     31  N   LIG d   1      15.080  -4.782  -7.567  0.00  0.00    -0.331 N 
ATOM     32  N   LIG d   1      14.411  -2.983  -8.844  0.00  0.00    -0.272 NA
ATOM     33  H   LIG d   1      14.953  -5.778  -7.429  0.00  0.00     0.168 HD
ATOM     34  H   LIG d   1      13.938  -2.783  -9.730  0.00  0.00     0.127 HD
ATOM     35  H   LIG d   1      15.392  -2.740  -8.901  0.00  0.00     0.127 HD
ATOM     36  H   LIG d   1      10.991  -5.620 -10.984  0.00  0.00     0.127 HD
ATOM     37  H   LIG d   1      11.458  -6.311  -9.524  0.00  0.00     0.127 HD
BRANCH  31  38
ATOM     38  C   LIG d   1      15.696  -4.157  -6.465  0.00  0.00     0.034 A 
ATOM     39  C   LIG d   1      17.100  -4.177  -6.395  0.00  0.00     0.031 A 
ATOM     40  C   LIG d   1      17.786  -3.532  -5.360  0.00  0.00     0.026 A 
ATOM     41  C   LIG d   1      17.071  -2.850  -4.382  0.00  0.00     0.034 A 
ATOM     42 CL   LIG d   1      17.908  -2.051  -3.109  0.00  0.00    -0.084 Cl
ATOM     43  C   LIG d   1      15.682  -2.809  -4.433  0.00  0.00     0.026 A 
ATOM     44  C   LIG d   1      15.002  -3.456  -5.471  0.00  0.00     0.031 A 
ENDBRANCH  31  38
ENDBRANCH  25  26
ENDBRANCH  24  25
ENDBRANCH   1  24
TORSDOF 9
ENDMDL
MODEL 7
REMARK minimizedAffinity -4.14218712REMARK CNNscore 0.360621393REMARK CNNaffinity 5.61763191REMARK  9 active torsions:
REMARK  status: ('A' for Active; 'I' for Inactive)
REMARK    1  A    between atoms: N_3  and  C_17 
REMARK    2  A    between atoms: N_4  and  C_18 
REMARK       I    between atoms: N_5  and  C_19 
REMARK       I    between atoms: N_6  and  C_20 
REMARK       I    between atoms: N_7  and  C_19 
REMARK       I    between atoms: N_8  and  C_20 
REMARK       I    between atoms: N_9  and  C_21 
REMARK    3  A    between atoms: N_9  and  C_23 
REMARK       I    between atoms: N_10  and  C_22 
REMARK    4  A    between atoms: N_10  and  C_24 
REMARK       I    between atoms: N_11  and  C_21 
REMARK       I    between atoms: N_12  and  C_22 
REMARK    5  A    between atoms: C_13  and  C_14 
REMARK    6  A    between atoms: C_13  and  C_15 
REMARK    7  A    between atoms: C_14  and  C_16 
REMARK    8  A    between atoms: C_15  and  C_17 
REMARK    9  A    between atoms: C_16  and  C_18 
ROOT
ATOM      1  C   LIG d   1       2.008   8.563   8.707  0.00  0.00     0.002 C 
ENDROOT
BRANCH   1   2
ATOM      2  C   LIG d   1       2.413   7.828   7.429  0.00  0.00     0.002 C 
BRANCH   2   3
ATOM      3  C   LIG d   1       3.932   7.812   7.256  0.00  0.00     0.022 C 
BRANCH   3   4
ATOM      4  C   LIG d   1       4.324   7.982   5.790  0.00  0.00     0.152 C 
BRANCH   4   5
ATOM      5  N   LIG d   1       4.909   9.304   5.587  0.00  0.00    -0.261 NA
ATOM      6  C   LIG d   1       6.133   9.417   5.212  0.00  0.00     0.197 C 
ATOM      7  N   LIG d   1       6.636  10.667   5.014  0.00  0.00    -0.190 NA
ATOM      8  N   LIG d   1       7.005   8.414   4.932  0.00  0.00    -0.271 NA
ATOM      9  C   LIG d   1       6.337  11.651   5.796  0.00  0.00     0.180 C 
ATOM     10  N   LIG d   1       6.815  12.931   5.675  0.00  0.00    -0.331 N 
ATOM     11  N   LIG d   1       5.524  11.592   6.895  0.00  0.00    -0.272 NA
ATOM     12  H   LIG d   1       6.939  13.396   6.563  0.00  0.00     0.168 HD
ATOM     13  H   LIG d   1       5.004  10.709   6.873  0.00  0.00     0.127 HD
ATOM     14  H   LIG d   1       4.851  12.350   6.905  0.00  0.00     0.127 HD
ATOM     15  H   LIG d   1       6.591   7.622   4.466  0.00  0.00     0.127 HD
ATOM     16  H   LIG d   1       7.799   8.783   4.422  0.00  0.00     0.127 HD
BRANCH  10  17
ATOM     17  C   LIG d   1       7.544  13.485   4.609  0.00  0.00     0.034 A 
ATOM     18  C   LIG d   1       6.856  14.160   3.588  0.00  0.00     0.031 A 
ATOM     19  C   LIG d   1       7.536  14.710   2.496  0.00  0.00     0.026 A 
ATOM     20  C   LIG d   1       8.918  14.580   2.408  0.00  0.00     0.034 A 
ATOM     21 CL   LIG d   1       9.759  15.249   1.065  0.00  0.00    -0.084 Cl
ATOM     22  C   LIG d   1       9.621  13.904   3.398  0.00  0.00     0.026 A 
ATOM     23  C   LIG d   1       8.935  13.359   4.489  0.00  0.00     0.031 A 
ENDBRANCH  10  17
ENDBRANCH   4   5
ENDBRANCH   3   4
ENDBRANCH   2   3
ENDBRANCH   1   2
BRANCH   1  24
ATOM     24  C   LIG d   1       3.142   9.449   9.222  0.00  0.00     0.022 C 
BRANCH  24  25
ATOM     25  C   LIG d   1       2.661  10.878   9.470  0.00  0.00     0.152 C 
BRANCH  25  26
ATOM     26  N   LIG d   1       2.704  11.650   8.231  0.00  0.00    -0.261 NA
ATOM     27  C   LIG d   1       1.916  12.651   8.064  0.00  0.00     0.197 C 
ATOM     28  N   LIG d   1       1.977  13.360   6.898  0.00  0.00    -0.190 NA
ATOM     29  N   LIG d   1       1.027  13.145   8.966  0.00  0.00    -0.271 NA
ATOM     30  C   LIG d   1       2.346  12.816   5.777  0.00  0.00     0.180 C 
ATOM     31  N   LIG d   1       2.413  13.617   4.673  0.00  0.00    -0.331 N 
ATOM     32  N   LIG d   1       2.753  11.531   5.593  0.00  0.00    -0.272 NA
ATOM     33  H   LIG d   1       2.192  14.582   4.895  0.00  0.00     0.168 HD
ATOM     34  H   LIG d   1       2.944  11.095   6.500  0.00  0.00     0.127 HD
ATOM     35  H   LIG d   1       3.564  11.467   4.990  0.00  0.00     0.127 HD
ATOM     36  H   LIG d   1       1.321  13.075   9.928  0.00  0.00     0.127 HD
ATOM     37  H   LIG d   1       0.750  14.085   8.711  0.00  0.00     0.127 HD
BRANCH  31  38
ATOM     38  C   LIG d   1       2.230  13.319   3.308  0.00  0.00     0.034 A 
ATOM     39  C   LIG d   1       0.923  13.071   2.856  0.00  0.00     0.031 A 
ATOM     40  C   LIG d   1       0.656  12.821   1.506  0.00  0.00     0.026 A 
ATOM     41  C   LIG d   1       1.699  12.824   0.587  0.00  0.00     0.034 A 
ATOM     42 CL   LIG d   1       1.376  12.522  -1.075  0.00  0.00    -0.084 Cl
ATOM     43  C   LIG d   1       3.000  13.075   1.008  0.00  0.00     0.026 A 
ATOM     44  C   LIG d   1       3.261  13.325   2.360  0.00  0.00     0.031 A 
ENDBRANCH  31  38
ENDBRANCH  25  26
ENDBRANCH  24  25
ENDBRANCH   1  24
TORSDOF 9
ENDMDL
MODEL 8
REMARK minimizedAffinity -5.8574605REMARK CNNscore 0.346925437REMARK CNNaffinity 5.05949354REMARK  9 active torsions:
REMARK  status: ('A' for Active; 'I' for Inactive)
REMARK    1  A    between atoms: N_3  and  C_17 
REMARK    2  A    between atoms: N_4  and  C_18 
REMARK       I    between atoms: N_5  and  C_19 
REMARK       I    between atoms: N_6  and  C_20 
REMARK       I    between atoms: N_7  and  C_19 
REMARK       I    between atoms: N_8  and  C_20 
REMARK       I    between atoms: N_9  and  C_21 
REMARK    3  A    between atoms: N_9  and  C_23 
REMARK       I    between atoms: N_10  and  C_22 
REMARK    4  A    between atoms: N_10  and  C_24 
REMARK       I    between atoms: N_11  and  C_21 
REMARK       I    between atoms: N_12  and  C_22 
REMARK    5  A    between atoms: C_13  and  C_14 
REMARK    6  A    between atoms: C_13  and  C_15 
REMARK    7  A    between atoms: C_14  and  C_16 
REMARK    8  A    between atoms: C_15  and  C_17 
REMARK    9  A    between atoms: C_16  and  C_18 
ROOT
ATOM      1  C   LIG d   1      16.906 -15.428  -7.106  0.00  0.00     0.002 C 
ENDROOT
BRANCH   1   2
ATOM      2  C   LIG d   1      17.594 -14.165  -7.624  0.00  0.00     0.002 C 
BRANCH   2   3
ATOM      3  C   LIG d   1      16.632 -13.306  -8.444  0.00  0.00     0.022 C 
BRANCH   3   4
ATOM      4  C   LIG d   1      16.826 -13.532  -9.941  0.00  0.00     0.152 C 
BRANCH   4   5
ATOM      5  N   LIG d   1      15.903 -12.685 -10.691  0.00  0.00    -0.261 NA
ATOM      6  C   LIG d   1      15.175 -13.191 -11.620  0.00  0.00     0.197 C 
ATOM      7  N   LIG d   1      14.311 -12.372 -12.283  0.00  0.00    -0.190 NA
ATOM      8  N   LIG d   1      15.118 -14.492 -12.008  0.00  0.00    -0.271 NA
ATOM      9  C   LIG d   1      14.634 -11.163 -12.605  0.00  0.00     0.180 C 
ATOM     10  N   LIG d   1      13.831 -10.285 -13.287  0.00  0.00    -0.331 N 
ATOM     11  N   LIG d   1      15.833 -10.553 -12.356  0.00  0.00    -0.272 NA
ATOM     12  H   LIG d   1      14.346  -9.661 -13.892  0.00  0.00     0.168 HD
ATOM     13  H   LIG d   1      16.354 -11.115 -11.676  0.00  0.00     0.127 HD
ATOM     14  H   LIG d   1      15.709  -9.626 -11.965  0.00  0.00     0.127 HD
ATOM     15  H   LIG d   1      15.190 -15.154 -11.251  0.00  0.00     0.127 HD
ATOM     16  H   LIG d   1      14.289 -14.646 -12.570  0.00  0.00     0.127 HD
BRANCH  10  17
ATOM     17  C   LIG d   1      12.467 -10.423 -13.600  0.00  0.00     0.034 A 
ATOM     18  C   LIG d   1      12.058 -11.487 -14.419  0.00  0.00     0.031 A 
ATOM     19  C   LIG d   1      10.715 -11.652 -14.775  0.00  0.00     0.026 A 
ATOM     20  C   LIG d   1       9.764 -10.743 -14.322  0.00  0.00     0.034 A 
ATOM     21 CL   LIG d   1       8.113 -10.938 -14.761  0.00  0.00    -0.084 Cl
ATOM     22  C   LIG d   1      10.146  -9.673 -13.521  0.00  0.00     0.026 A 
ATOM     23  C   LIG d   1      11.490  -9.516 -13.166  0.00  0.00     0.031 A 
ENDBRANCH  10  17
ENDBRANCH   4   5
ENDBRANCH   3   4
ENDBRANCH   2   3
ENDBRANCH   1   2
BRANCH   1  24
ATOM     24  C   LIG d   1      17.736 -16.676  -7.403  0.00  0.00     0.022 C 
BRANCH  24  25
ATOM     25  C   LIG d   1      18.669 -17.013  -6.241  0.00  0.00     0.152 C 
BRANCH  25  26
ATOM     26  N   LIG d   1      17.913 -17.595  -5.136  0.00  0.00    -0.261 NA
ATOM     27  C   LIG d   1      17.824 -16.973  -4.014  0.00  0.00     0.197 C 
ATOM     28  N   LIG d   1      17.109 -17.536  -2.996  0.00  0.00    -0.190 NA
ATOM     29  N   LIG d   1      18.332 -15.747  -3.723  0.00  0.00    -0.271 NA
ATOM     30  C   LIG d   1      16.979 -18.822  -2.871  0.00  0.00     0.180 C 
ATOM     31  N   LIG d   1      16.212 -19.287  -1.841  0.00  0.00    -0.331 N 
ATOM     32  N   LIG d   1      17.471 -19.774  -3.710  0.00  0.00    -0.272 NA
ATOM     33  H   LIG d   1      15.796 -18.530  -1.311  0.00  0.00     0.168 HD
ATOM     34  H   LIG d   1      17.776 -19.339  -4.586  0.00  0.00     0.127 HD
ATOM     35  H   LIG d   1      16.798 -20.509  -3.893  0.00  0.00     0.127 HD
ATOM     36  H   LIG d   1      18.335 -15.098  -4.495  0.00  0.00     0.127 HD
ATOM     37  H   LIG d   1      17.886 -15.367  -2.897  0.00  0.00     0.127 HD
BRANCH  31  38
ATOM     38  C   LIG d   1      16.289 -20.486  -1.105  0.00  0.00     0.034 A 
ATOM     39  C   LIG d   1      15.521 -21.579  -1.541  0.00  0.00     0.031 A 
ATOM     40  C   LIG d   1      15.586 -22.818  -0.893  0.00  0.00     0.026 A 
ATOM     41  C   LIG d   1      16.431 -22.979   0.200  0.00  0.00     0.034 A 
ATOM     42 CL   LIG d   1      16.520 -24.500   0.997  0.00  0.00    -0.084 Cl
ATOM     43  C   LIG d   1      17.207 -21.914   0.646  0.00  0.00     0.026 A 
ATOM     44  C   LIG d   1      17.138 -20.678  -0.007  0.00  0.00     0.031 A 
ENDBRANCH  31  38
ENDBRANCH  25  26
ENDBRANCH  24  25
ENDBRANCH   1  24
TORSDOF 9
ENDMDL
MODEL 9
REMARK minimizedAffinity -5.7153821REMARK CNNscore 0.337686867REMARK CNNaffinity 5.76189327REMARK  9 active torsions:
REMARK  status: ('A' for Active; 'I' for Inactive)
REMARK    1  A    between atoms: N_3  and  C_17 
REMARK    2  A    between atoms: N_4  and  C_18 
REMARK       I    between atoms: N_5  and  C_19 
REMARK       I    between atoms: N_6  and  C_20 
REMARK       I    between atoms: N_7  and  C_19 
REMARK       I    between atoms: N_8  and  C_20 
REMARK       I    between atoms: N_9  and  C_21 
REMARK    3  A    between atoms: N_9  and  C_23 
REMARK       I    between atoms: N_10  and  C_22 
REMARK    4  A    between atoms: N_10  and  C_24 
REMARK       I    between atoms: N_11  and  C_21 
REMARK       I    between atoms: N_12  and  C_22 
REMARK    5  A    between atoms: C_13  and  C_14 
REMARK    6  A    between atoms: C_13  and  C_15 
REMARK    7  A    between atoms: C_14  and  C_16 
REMARK    8  A    between atoms: C_15  and  C_17 
REMARK    9  A    between atoms: C_16  and  C_18 
ROOT
ATOM      1  C   LIG d   1      19.424  -1.120  -6.733  0.00  0.00     0.002 C 
ENDROOT
BRANCH   1   2
ATOM      2  C   LIG d   1      19.022  -1.218  -5.261  0.00  0.00     0.002 C 
BRANCH   2   3
ATOM      3  C   LIG d   1      18.063  -2.384  -5.025  0.00  0.00     0.022 C 
BRANCH   3   4
ATOM      4  C   LIG d   1      16.608  -1.942  -5.161  0.00  0.00     0.152 C 
BRANCH   4   5
ATOM      5  N   LIG d   1      15.894  -2.860  -6.044  0.00  0.00    -0.261 NA
ATOM      6  C   LIG d   1      14.963  -2.421  -6.812  0.00  0.00     0.197 C 
ATOM      7  N   LIG d   1      14.335  -3.305  -7.636  0.00  0.00    -0.190 NA
ATOM      8  N   LIG d   1      14.542  -1.137  -6.948  0.00  0.00    -0.271 NA
ATOM      9  C   LIG d   1      14.040  -4.503  -7.249  0.00  0.00     0.180 C 
ATOM     10  N   LIG d   1      13.393  -5.442  -8.010  0.00  0.00    -0.331 N 
ATOM     11  N   LIG d   1      14.287  -5.037  -6.014  0.00  0.00    -0.272 NA
ATOM     12  H   LIG d   1      12.797  -6.053  -7.469  0.00  0.00     0.168 HD
ATOM     13  H   LIG d   1      14.945  -4.427  -5.518  0.00  0.00     0.127 HD
ATOM     14  H   LIG d   1      14.704  -5.958  -6.080  0.00  0.00     0.127 HD
ATOM     15  H   LIG d   1      15.281  -0.451  -6.904  0.00  0.00     0.127 HD
ATOM     16  H   LIG d   1      13.989  -1.045  -7.792  0.00  0.00     0.127 HD
BRANCH  10  17
ATOM     17  C   LIG d   1      13.097  -5.391  -9.383  0.00  0.00     0.034 A 
ATOM     18  C   LIG d   1      11.762  -5.234  -9.789  0.00  0.00     0.031 A 
ATOM     19  C   LIG d   1      11.416  -5.198 -11.145  0.00  0.00     0.026 A 
ATOM     20  C   LIG d   1      12.406  -5.332 -12.113  0.00  0.00     0.034 A 
ATOM     21 CL   LIG d   1      11.986  -5.294 -13.780  0.00  0.00    -0.084 Cl
ATOM     22  C   LIG d   1      13.733  -5.502 -11.736  0.00  0.00     0.026 A 
ATOM     23  C   LIG d   1      14.072  -5.534 -10.380  0.00  0.00     0.031 A 
ENDBRANCH  10  17
ENDBRANCH   4   5
ENDBRANCH   3   4
ENDBRANCH   2   3
ENDBRANCH   1   2
BRANCH   1  24
ATOM     24  C   LIG d   1      20.929  -0.903  -6.885  0.00  0.00     0.022 C 
BRANCH  24  25
ATOM     25  C   LIG d   1      21.435  -1.437  -8.225  0.00  0.00     0.152 C 
BRANCH  25  26
ATOM     26  N   LIG d   1      20.324  -1.965  -9.012  0.00  0.00    -0.261 NA
ATOM     27  C   LIG d   1      20.501  -2.294 -10.242  0.00  0.00     0.197 C 
ATOM     28  N   LIG d   1      19.448  -2.788 -10.957  0.00  0.00    -0.190 NA
ATOM     29  N   LIG d   1      21.670  -2.257 -10.933  0.00  0.00    -0.271 NA
ATOM     30  C   LIG d   1      18.218  -2.461 -10.694  0.00  0.00     0.180 C 
ATOM     31  N   LIG d   1      17.232  -3.039 -11.440  0.00  0.00    -0.331 N 
ATOM     32  N   LIG d   1      17.791  -1.646  -9.690  0.00  0.00    -0.272 NA
ATOM     33  H   LIG d   1      17.606  -3.707 -12.105  0.00  0.00     0.168 HD
ATOM     34  H   LIG d   1      18.552  -1.494  -9.022  0.00  0.00     0.127 HD
ATOM     35  H   LIG d   1      16.972  -2.013  -9.220  0.00  0.00     0.127 HD
ATOM     36  H   LIG d   1      22.490  -2.464 -10.384  0.00  0.00     0.127 HD
ATOM     37  H   LIG d   1      21.607  -2.826 -11.767  0.00  0.00     0.127 HD
BRANCH  31  38
ATOM     38  C   LIG d   1      15.959  -2.562 -11.810  0.00  0.00     0.034 A 
ATOM     39  C   LIG d   1      15.633  -2.543 -13.178  0.00  0.00     0.031 A 
ATOM     40  C   LIG d   1      14.370  -2.134 -13.618  0.00  0.00     0.026 A 
ATOM     41  C   LIG d   1      13.411  -1.744 -12.690  0.00  0.00     0.034 A 
ATOM     42 CL   LIG d   1      11.855  -1.244 -13.224  0.00  0.00    -0.084 Cl
ATOM     43  C   LIG d   1      13.706  -1.761 -11.331  0.00  0.00     0.026 A 
ATOM     44  C   LIG d   1      14.972  -2.172 -10.897  0.00  0.00     0.031 A 
ENDBRANCH  31  38
ENDBRANCH  25  26
ENDBRANCH  24  25
ENDBRANCH   1  24
TORSDOF 9
ENDMDL
