MODEL 1
REMARK minimizedAffinity -7.62399673REMARK CNNscore 0.827570915REMARK CNNaffinity 5.52180624REMARK  8 active torsions:
REMARK  status: ('A' for Active; 'I' for Inactive)
REMARK    1  A    between atoms: S_1  and  N_7 
REMARK    2  A    between atoms: S_1  and  C_11 
REMARK    3  A    between atoms: O_4  and  C_22 
REMARK    4  A    between atoms: N_7  and  C_17 
REMARK    5  A    between atoms: N_8  and  N_10 
REMARK    6  A    between atoms: N_8  and  C_14 
REMARK    7  A    between atoms: N_10  and  C_18 
REMARK    8  A    between atoms: C_20  and  C_28 
ROOT
ATOM      1  C   LIG d   1       6.437   0.766  19.711  0.00  0.00     0.075 A 
ATOM      2  C   LIG d   1       5.689   1.639  18.923  0.00  0.00     0.027 A 
ATOM      3  C   LIG d   1       6.194   0.660  21.079  0.00  0.00     0.027 A 
ATOM      4  C   LIG d   1       4.461   2.381  20.909  0.00  0.00     0.079 A 
ATOM      5  C   LIG d   1       4.716   2.439  19.529  0.00  0.00     0.035 A 
ATOM      6  C   LIG d   1       5.219   1.472  21.662  0.00  0.00     0.035 A 
ENDROOT
BRANCH   4   7
ATOM      7  N   LIG d   1       3.559   3.148  21.566  0.00  0.00    -0.150 NA
BRANCH   7   8
ATOM      8  N   LIG d   1       2.188   3.149  21.000  0.00  0.00    -0.150 NA
BRANCH   8   9
ATOM      9  C   LIG d   1       1.327   2.237  21.535  0.00  0.00     0.080 A 
ATOM     10  C   LIG d   1       0.288   1.696  20.729  0.00  0.00     0.054 A 
ATOM     11  C   LIG d   1      -0.658   0.748  21.200  0.00  0.00     0.076 A 
ATOM     12  C   LIG d   1      -0.544   0.347  22.542  0.00  0.00     0.082 A 
ATOM     13  C   LIG d   1       0.450   0.858  23.368  0.00  0.00     0.040 A 
ATOM     14  C   LIG d   1       1.368   1.790  22.865  0.00  0.00     0.036 A 
BRANCH  11  15
ATOM     15  C   LIG d   1      -1.750   0.178  20.314  0.00  0.00     0.212 C 
ATOM     16  O   LIG d   1      -1.668  -1.084  20.063  0.00  0.00    -0.644 OA
ATOM     17  O   LIG d   1      -2.685   0.918  19.865  0.00  0.00    -0.644 OA
ENDBRANCH  11  15
BRANCH  12  18
ATOM     18  O   LIG d   1      -1.409  -0.569  23.103  0.00  0.00    -0.360 OA
ATOM     19  H   LIG d   1      -2.011  -0.805  22.347  0.00  0.00     0.217 HD
ENDBRANCH  12  18
ENDBRANCH   8   9
ENDBRANCH   7   8
ENDBRANCH   4   7
BRANCH   1  20
ATOM     20  S   LIG d   1       7.709  -0.220  18.985  0.00  0.00     0.247 S 
ATOM     21  O   LIG d   1       8.238   0.481  17.827  0.00  0.00    -0.205 OA
ATOM     22  O   LIG d   1       8.622  -0.696  20.007  0.00  0.00    -0.205 OA
BRANCH  20  23
ATOM     23  N   LIG d   1       6.860  -1.553  18.348  0.00  0.00    -0.165 NA
ATOM     24  H   LIG d   1       6.052  -1.712  18.951  0.00  0.00     0.147 HD
BRANCH  23  25
ATOM     25  C   LIG d   1       7.580  -2.768  18.334  0.00  0.00     0.116 C 
ATOM     26  N   LIG d   1       6.971  -3.702  19.079  0.00  0.00    -0.248 NA
ATOM     27  C   LIG d   1       7.642  -4.863  19.239  0.00  0.00     0.118 C 
ATOM     28  C   LIG d   1       8.830  -5.161  18.589  0.00  0.00     0.019 C 
ATOM     29  C   LIG d   1       9.376  -4.203  17.740  0.00  0.00     0.005 C 
ATOM     30  C   LIG d   1       8.740  -2.974  17.609  0.00  0.00     0.045 C 
ENDBRANCH  23  25
ENDBRANCH  20  23
ENDBRANCH   1  20
TORSDOF 8
ENDMDL
MODEL 2
REMARK minimizedAffinity -6.78411961REMARK CNNscore 0.447051018REMARK CNNaffinity 4.84164524REMARK  8 active torsions:
REMARK  status: ('A' for Active; 'I' for Inactive)
REMARK    1  A    between atoms: S_1  and  N_7 
REMARK    2  A    between atoms: S_1  and  C_11 
REMARK    3  A    between atoms: O_4  and  C_22 
REMARK    4  A    between atoms: N_7  and  C_17 
REMARK    5  A    between atoms: N_8  and  N_10 
REMARK    6  A    between atoms: N_8  and  C_14 
REMARK    7  A    between atoms: N_10  and  C_18 
REMARK    8  A    between atoms: C_20  and  C_28 
ROOT
ATOM      1  C   LIG d   1      24.694  -2.189  18.942  0.00  0.00     0.075 A 
ATOM      2  C   LIG d   1      23.764  -1.253  18.498  0.00  0.00     0.027 A 
ATOM      3  C   LIG d   1      25.464  -2.914  18.033  0.00  0.00     0.027 A 
ATOM      4  C   LIG d   1      24.317  -1.804  16.175  0.00  0.00     0.079 A 
ATOM      5  C   LIG d   1      23.581  -1.075  17.123  0.00  0.00     0.035 A 
ATOM      6  C   LIG d   1      25.260  -2.720  16.665  0.00  0.00     0.035 A 
ENDROOT
BRANCH   4   7
ATOM      7  N   LIG d   1      24.169  -1.708  14.833  0.00  0.00    -0.150 NA
BRANCH   7   8
ATOM      8  N   LIG d   1      24.593  -0.418  14.235  0.00  0.00    -0.150 NA
BRANCH   8   9
ATOM      9  C   LIG d   1      25.422  -0.512  13.156  0.00  0.00     0.080 A 
ATOM     10  C   LIG d   1      25.523   0.581  12.251  0.00  0.00     0.054 A 
ATOM     11  C   LIG d   1      26.353   0.573  11.100  0.00  0.00     0.076 A 
ATOM     12  C   LIG d   1      27.098  -0.595  10.860  0.00  0.00     0.082 A 
ATOM     13  C   LIG d   1      27.022  -1.690  11.713  0.00  0.00     0.040 A 
ATOM     14  C   LIG d   1      26.194  -1.641  12.841  0.00  0.00     0.036 A 
BRANCH  11  15
ATOM     15  C   LIG d   1      26.449   1.757  10.157  0.00  0.00     0.212 C 
ATOM     16  O   LIG d   1      26.799   2.876  10.695  0.00  0.00    -0.644 OA
ATOM     17  O   LIG d   1      26.204   1.629   8.913  0.00  0.00    -0.644 OA
ENDBRANCH  11  15
BRANCH  12  18
ATOM     18  O   LIG d   1      27.937  -0.710   9.771  0.00  0.00    -0.360 OA
ATOM     19  H   LIG d   1      27.848   0.172   9.321  0.00  0.00     0.217 HD
ENDBRANCH  12  18
ENDBRANCH   8   9
ENDBRANCH   7   8
ENDBRANCH   4   7
BRANCH   1  20
ATOM     20  S   LIG d   1      24.911  -2.476  20.671  0.00  0.00     0.247 S 
ATOM     21  O   LIG d   1      24.970  -3.909  20.902  0.00  0.00    -0.205 OA
ATOM     22  O   LIG d   1      25.966  -1.627  21.194  0.00  0.00    -0.205 OA
BRANCH  20  23
ATOM     23  N   LIG d   1      23.427  -1.977  21.343  0.00  0.00    -0.165 NA
ATOM     24  H   LIG d   1      23.161  -1.109  20.876  0.00  0.00     0.147 HD
BRANCH  23  25
ATOM     25  C   LIG d   1      23.465  -1.681  22.723  0.00  0.00     0.116 C 
ATOM     26  N   LIG d   1      23.268  -2.783  23.462  0.00  0.00    -0.248 NA
ATOM     27  C   LIG d   1      23.156  -2.591  24.794  0.00  0.00     0.118 C 
ATOM     28  C   LIG d   1      23.351  -1.366  25.414  0.00  0.00     0.019 C 
ATOM     29  C   LIG d   1      23.658  -0.266  24.620  0.00  0.00     0.005 C 
ATOM     30  C   LIG d   1      23.714  -0.422  23.239  0.00  0.00     0.045 C 
ENDBRANCH  23  25
ENDBRANCH  20  23
ENDBRANCH   1  20
TORSDOF 8
ENDMDL
MODEL 3
REMARK minimizedAffinity -6.74830866REMARK CNNscore 0.443521857REMARK CNNaffinity 4.89108801REMARK  8 active torsions:
REMARK  status: ('A' for Active; 'I' for Inactive)
REMARK    1  A    between atoms: S_1  and  N_7 
REMARK    2  A    between atoms: S_1  and  C_11 
REMARK    3  A    between atoms: O_4  and  C_22 
REMARK    4  A    between atoms: N_7  and  C_17 
REMARK    5  A    between atoms: N_8  and  N_10 
REMARK    6  A    between atoms: N_8  and  C_14 
REMARK    7  A    between atoms: N_10  and  C_18 
REMARK    8  A    between atoms: C_20  and  C_28 
ROOT
ATOM      1  C   LIG d   1      13.058  -2.225 -12.671  0.00  0.00     0.075 A 
ATOM      2  C   LIG d   1      14.442  -2.061 -12.686  0.00  0.00     0.027 A 
ATOM      3  C   LIG d   1      12.310  -2.056 -13.835  0.00  0.00     0.027 A 
ATOM      4  C   LIG d   1      14.347  -1.477 -15.064  0.00  0.00     0.079 A 
ATOM      5  C   LIG d   1      15.069  -1.684 -13.878  0.00  0.00     0.035 A 
ATOM      6  C   LIG d   1      12.959  -1.676 -15.011  0.00  0.00     0.035 A 
ENDROOT
BRANCH   4   7
ATOM      7  N   LIG d   1      14.883  -1.081 -16.242  0.00  0.00    -0.150 NA
BRANCH   7   8
ATOM      8  N   LIG d   1      14.667   0.344 -16.595  0.00  0.00    -0.150 NA
BRANCH   8   9
ATOM      9  C   LIG d   1      15.487   1.238 -15.973  0.00  0.00     0.080 A 
ATOM     10  C   LIG d   1      16.898   1.080 -16.067  0.00  0.00     0.054 A 
ATOM     11  C   LIG d   1      17.828   1.956 -15.449  0.00  0.00     0.076 A 
ATOM     12  C   LIG d   1      17.300   3.023 -14.703  0.00  0.00     0.082 A 
ATOM     13  C   LIG d   1      15.928   3.209 -14.577  0.00  0.00     0.040 A 
ATOM     14  C   LIG d   1      15.042   2.325 -15.205  0.00  0.00     0.036 A 
BRANCH  11  15
ATOM     15  C   LIG d   1      19.329   1.769 -15.574  0.00  0.00     0.212 C 
ATOM     16  O   LIG d   1      19.776   1.608 -16.773  0.00  0.00    -0.644 OA
ATOM     17  O   LIG d   1      20.081   1.783 -14.546  0.00  0.00    -0.644 OA
ENDBRANCH  11  15
BRANCH  12  18
ATOM     18  O   LIG d   1      18.114   3.934 -14.062  0.00  0.00    -0.360 OA
ATOM     19  H   LIG d   1      19.030   3.624 -14.295  0.00  0.00     0.217 HD
ENDBRANCH  12  18
ENDBRANCH   8   9
ENDBRANCH   7   8
ENDBRANCH   4   7
BRANCH   1  20
ATOM     20  S   LIG d   1      12.230  -2.649 -11.170  0.00  0.00     0.247 S 
ATOM     21  O   LIG d   1      12.112  -1.455 -10.351  0.00  0.00    -0.205 OA
ATOM     22  O   LIG d   1      11.045  -3.438 -11.454  0.00  0.00    -0.205 OA
BRANCH  20  23
ATOM     23  N   LIG d   1      13.360  -3.635 -10.361  0.00  0.00    -0.165 NA
ATOM     24  H   LIG d   1      13.031  -4.598 -10.440  0.00  0.00     0.147 HD
BRANCH  23  25
ATOM     25  C   LIG d   1      13.492  -3.381  -8.978  0.00  0.00     0.116 C 
ATOM     26  N   LIG d   1      12.561  -4.039  -8.272  0.00  0.00    -0.248 NA
ATOM     27  C   LIG d   1      12.515  -3.765  -6.951  0.00  0.00     0.118 C 
ATOM     28  C   LIG d   1      13.435  -2.957  -6.300  0.00  0.00     0.019 C 
ATOM     29  C   LIG d   1      14.451  -2.375  -7.052  0.00  0.00     0.005 C 
ATOM     30  C   LIG d   1      14.482  -2.588  -8.426  0.00  0.00     0.045 C 
ENDBRANCH  23  25
ENDBRANCH  20  23
ENDBRANCH   1  20
TORSDOF 8
ENDMDL
MODEL 4
REMARK minimizedAffinity -7.38567305REMARK CNNscore 0.438480139REMARK CNNaffinity 5.28871679REMARK  8 active torsions:
REMARK  status: ('A' for Active; 'I' for Inactive)
REMARK    1  A    between atoms: S_1  and  N_7 
REMARK    2  A    between atoms: S_1  and  C_11 
REMARK    3  A    between atoms: O_4  and  C_22 
REMARK    4  A    between atoms: N_7  and  C_17 
REMARK    5  A    between atoms: N_8  and  N_10 
REMARK    6  A    between atoms: N_8  and  C_14 
REMARK    7  A    between atoms: N_10  and  C_18 
REMARK    8  A    between atoms: C_20  and  C_28 
ROOT
ATOM      1  C   LIG d   1       6.517   0.771  19.780  0.00  0.00     0.075 A 
ATOM      2  C   LIG d   1       6.352   0.616  21.155  0.00  0.00     0.027 A 
ATOM      3  C   LIG d   1       5.723   1.668  19.066  0.00  0.00     0.027 A 
ATOM      4  C   LIG d   1       4.514   2.235  21.118  0.00  0.00     0.079 A 
ATOM      5  C   LIG d   1       5.351   1.343  21.807  0.00  0.00     0.035 A 
ATOM      6  C   LIG d   1       4.728   2.379  19.740  0.00  0.00     0.035 A 
ENDROOT
BRANCH   4   7
ATOM      7  N   LIG d   1       3.506   2.945  21.678  0.00  0.00    -0.150 NA
BRANCH   7   8
ATOM      8  N   LIG d   1       3.889   3.807  22.822  0.00  0.00    -0.150 NA
BRANCH   8   9
ATOM      9  C   LIG d   1       4.226   5.091  22.508  0.00  0.00     0.080 A 
ATOM     10  C   LIG d   1       5.582   5.506  22.610  0.00  0.00     0.054 A 
ATOM     11  C   LIG d   1       6.025   6.821  22.311  0.00  0.00     0.076 A 
ATOM     12  C   LIG d   1       5.048   7.745  21.902  0.00  0.00     0.082 A 
ATOM     13  C   LIG d   1       3.710   7.384  21.797  0.00  0.00     0.040 A 
ATOM     14  C   LIG d   1       3.313   6.075  22.098  0.00  0.00     0.036 A 
BRANCH  11  15
ATOM     15  C   LIG d   1       7.481   7.234  22.419  0.00  0.00     0.212 C 
ATOM     16  O   LIG d   1       7.728   8.219  23.215  0.00  0.00    -0.644 OA
ATOM     17  O   LIG d   1       8.388   6.626  21.762  0.00  0.00    -0.644 OA
ENDBRANCH  11  15
BRANCH  12  18
ATOM     18  O   LIG d   1       5.369   9.049  21.586  0.00  0.00    -0.360 OA
ATOM     19  H   LIG d   1       6.355   9.078  21.714  0.00  0.00     0.217 HD
ENDBRANCH  12  18
ENDBRANCH   8   9
ENDBRANCH   7   8
ENDBRANCH   4   7
BRANCH   1  20
ATOM     20  S   LIG d   1       7.736  -0.171  18.919  0.00  0.00     0.247 S 
ATOM     21  O   LIG d   1       8.134   0.559  17.727  0.00  0.00    -0.205 OA
ATOM     22  O   LIG d   1       8.755  -0.639  19.840  0.00  0.00    -0.205 OA
BRANCH  20  23
ATOM     23  N   LIG d   1       6.862  -1.517  18.345  0.00  0.00    -0.165 NA
ATOM     24  H   LIG d   1       6.068  -1.650  18.973  0.00  0.00     0.147 HD
BRANCH  23  25
ATOM     25  C   LIG d   1       7.572  -2.738  18.350  0.00  0.00     0.116 C 
ATOM     26  N   LIG d   1       6.945  -3.661  19.094  0.00  0.00    -0.248 NA
ATOM     27  C   LIG d   1       7.604  -4.826  19.273  0.00  0.00     0.118 C 
ATOM     28  C   LIG d   1       8.799  -5.138  18.642  0.00  0.00     0.019 C 
ATOM     29  C   LIG d   1       9.365  -4.191  17.793  0.00  0.00     0.005 C 
ATOM     30  C   LIG d   1       8.740  -2.958  17.644  0.00  0.00     0.045 C 
ENDBRANCH  23  25
ENDBRANCH  20  23
ENDBRANCH   1  20
TORSDOF 8
ENDMDL
MODEL 5
REMARK minimizedAffinity -7.60220003REMARK CNNscore 0.418610454REMARK CNNaffinity 5.13858986REMARK  8 active torsions:
REMARK  status: ('A' for Active; 'I' for Inactive)
REMARK    1  A    between atoms: S_1  and  N_7 
REMARK    2  A    between atoms: S_1  and  C_11 
REMARK    3  A    between atoms: O_4  and  C_22 
REMARK    4  A    between atoms: N_7  and  C_17 
REMARK    5  A    between atoms: N_8  and  N_10 
REMARK    6  A    between atoms: N_8  and  C_14 
REMARK    7  A    between atoms: N_10  and  C_18 
REMARK    8  A    between atoms: C_20  and  C_28 
ROOT
ATOM      1  C   LIG d   1      19.688   6.152  -4.639  0.00  0.00     0.075 A 
ATOM      2  C   LIG d   1      20.156   4.932  -5.121  0.00  0.00     0.027 A 
ATOM      3  C   LIG d   1      18.320   6.420  -4.593  0.00  0.00     0.027 A 
ATOM      4  C   LIG d   1      17.856   4.234  -5.592  0.00  0.00     0.079 A 
ATOM      5  C   LIG d   1      19.239   3.991  -5.597  0.00  0.00     0.035 A 
ATOM      6  C   LIG d   1      17.425   5.465  -5.077  0.00  0.00     0.035 A 
ENDROOT
BRANCH   4   7
ATOM      7  N   LIG d   1      16.915   3.384  -6.067  0.00  0.00    -0.150 NA
BRANCH   7   8
ATOM      8  N   LIG d   1      17.196   1.941  -5.864  0.00  0.00    -0.150 NA
BRANCH   8   9
ATOM      9  C   LIG d   1      16.102   1.135  -5.755  0.00  0.00     0.080 A 
ATOM     10  C   LIG d   1      15.905   0.087  -6.696  0.00  0.00     0.054 A 
ATOM     11  C   LIG d   1      14.795  -0.797  -6.666  0.00  0.00     0.076 A 
ATOM     12  C   LIG d   1      13.849  -0.597  -5.646  0.00  0.00     0.082 A 
ATOM     13  C   LIG d   1      13.997   0.421  -4.711  0.00  0.00     0.040 A 
ATOM     14  C   LIG d   1      15.109   1.271  -4.772  0.00  0.00     0.036 A 
BRANCH  11  15
ATOM     15  C   LIG d   1      14.616  -1.914  -7.677  0.00  0.00     0.212 C 
ATOM     16  O   LIG d   1      13.522  -1.884  -8.359  0.00  0.00    -0.644 OA
ATOM     17  O   LIG d   1      15.509  -2.810  -7.831  0.00  0.00    -0.644 OA
ENDBRANCH  11  15
BRANCH  12  18
ATOM     18  O   LIG d   1      12.733  -1.398  -5.523  0.00  0.00    -0.360 OA
ATOM     19  H   LIG d   1      12.838  -2.050  -6.268  0.00  0.00     0.217 HD
ENDBRANCH  12  18
ENDBRANCH   8   9
ENDBRANCH   7   8
ENDBRANCH   4   7
BRANCH   1  20
ATOM     20  S   LIG d   1      20.823   7.383  -4.080  0.00  0.00     0.247 S 
ATOM     21  O   LIG d   1      22.020   7.321  -4.903  0.00  0.00    -0.205 OA
ATOM     22  O   LIG d   1      20.144   8.654  -3.907  0.00  0.00    -0.205 OA
BRANCH  20  23
ATOM     23  N   LIG d   1      21.306   6.809  -2.550  0.00  0.00    -0.165 NA
ATOM     24  H   LIG d   1      21.100   7.546  -1.873  0.00  0.00     0.147 HD
BRANCH  23  25
ATOM     25  C   LIG d   1      22.685   6.536  -2.421  0.00  0.00     0.116 C 
ATOM     26  N   LIG d   1      23.340   7.581  -1.892  0.00  0.00    -0.248 NA
ATOM     27  C   LIG d   1      24.685   7.475  -1.845  0.00  0.00     0.118 C 
ATOM     28  C   LIG d   1      25.379   6.326  -2.194  0.00  0.00     0.019 C 
ATOM     29  C   LIG d   1      24.654   5.226  -2.640  0.00  0.00     0.005 C 
ATOM     30  C   LIG d   1      23.272   5.331  -2.761  0.00  0.00     0.045 C 
ENDBRANCH  23  25
ENDBRANCH  20  23
ENDBRANCH   1  20
TORSDOF 8
ENDMDL
MODEL 6
REMARK minimizedAffinity -7.03812361REMARK CNNscore 0.397895545REMARK CNNaffinity 5.36106253REMARK  8 active torsions:
REMARK  status: ('A' for Active; 'I' for Inactive)
REMARK    1  A    between atoms: S_1  and  N_7 
REMARK    2  A    between atoms: S_1  and  C_11 
REMARK    3  A    between atoms: O_4  and  C_22 
REMARK    4  A    between atoms: N_7  and  C_17 
REMARK    5  A    between atoms: N_8  and  N_10 
REMARK    6  A    between atoms: N_8  and  C_14 
REMARK    7  A    between atoms: N_10  and  C_18 
REMARK    8  A    between atoms: C_20  and  C_28 
ROOT
ATOM      1  C   LIG d   1       6.461   0.737  19.703  0.00  0.00     0.075 A 
ATOM      2  C   LIG d   1       5.659   1.629  18.995  0.00  0.00     0.027 A 
ATOM      3  C   LIG d   1       6.269   0.540  21.070  0.00  0.00     0.027 A 
ATOM      4  C   LIG d   1       4.476   2.207  21.060  0.00  0.00     0.079 A 
ATOM      5  C   LIG d   1       4.682   2.358  19.680  0.00  0.00     0.035 A 
ATOM      6  C   LIG d   1       5.288   1.282  21.732  0.00  0.00     0.035 A 
ENDROOT
BRANCH   4   7
ATOM      7  N   LIG d   1       3.573   2.902  21.792  0.00  0.00    -0.150 NA
BRANCH   7   8
ATOM      8  N   LIG d   1       3.902   4.329  22.026  0.00  0.00    -0.150 NA
BRANCH   8   9
ATOM      9  C   LIG d   1       4.937   4.565  22.881  0.00  0.00     0.080 A 
ATOM     10  C   LIG d   1       6.080   5.275  22.421  0.00  0.00     0.054 A 
ATOM     11  C   LIG d   1       7.207   5.562  23.236  0.00  0.00     0.076 A 
ATOM     12  C   LIG d   1       7.168   5.099  24.562  0.00  0.00     0.082 A 
ATOM     13  C   LIG d   1       6.074   4.393  25.051  0.00  0.00     0.040 A 
ATOM     14  C   LIG d   1       4.980   4.134  24.216  0.00  0.00     0.036 A 
BRANCH  11  15
ATOM     15  C   LIG d   1       8.409   6.331  22.722  0.00  0.00     0.212 C 
ATOM     16  O   LIG d   1       9.562   5.852  23.043  0.00  0.00    -0.644 OA
ATOM     17  O   LIG d   1       8.264   7.379  22.011  0.00  0.00    -0.644 OA
ENDBRANCH  11  15
BRANCH  12  18
ATOM     18  O   LIG d   1       8.207   5.323  25.441  0.00  0.00    -0.360 OA
ATOM     19  H   LIG d   1       8.856   5.845  24.896  0.00  0.00     0.217 HD
ENDBRANCH  12  18
ENDBRANCH   8   9
ENDBRANCH   7   8
ENDBRANCH   4   7
BRANCH   1  20
ATOM     20  S   LIG d   1       7.739  -0.159  18.878  0.00  0.00     0.247 S 
ATOM     21  O   LIG d   1       8.151   0.592  17.704  0.00  0.00    -0.205 OA
ATOM     22  O   LIG d   1       8.742  -0.598  19.830  0.00  0.00    -0.205 OA
BRANCH  20  23
ATOM     23  N   LIG d   1       6.930  -1.529  18.268  0.00  0.00    -0.165 NA
ATOM     24  H   LIG d   1       6.090  -1.660  18.833  0.00  0.00     0.147 HD
BRANCH  23  25
ATOM     25  C   LIG d   1       7.653  -2.739  18.357  0.00  0.00     0.116 C 
ATOM     26  N   LIG d   1       8.698  -2.744  17.517  0.00  0.00    -0.248 NA
ATOM     27  C   LIG d   1       9.382  -3.904  17.428  0.00  0.00     0.118 C 
ATOM     28  C   LIG d   1       9.131  -5.009  18.229  0.00  0.00     0.019 C 
ATOM     29  C   LIG d   1       8.103  -4.927  19.162  0.00  0.00     0.005 C 
ATOM     30  C   LIG d   1       7.340  -3.766  19.229  0.00  0.00     0.045 C 
ENDBRANCH  23  25
ENDBRANCH  20  23
ENDBRANCH   1  20
TORSDOF 8
ENDMDL
MODEL 7
REMARK minimizedAffinity -8.56607628REMARK CNNscore 0.320461124REMARK CNNaffinity 5.2950387REMARK  8 active torsions:
REMARK  status: ('A' for Active; 'I' for Inactive)
REMARK    1  A    between atoms: S_1  and  N_7 
REMARK    2  A    between atoms: S_1  and  C_11 
REMARK    3  A    between atoms: O_4  and  C_22 
REMARK    4  A    between atoms: N_7  and  C_17 
REMARK    5  A    between atoms: N_8  and  N_10 
REMARK    6  A    between atoms: N_8  and  C_14 
REMARK    7  A    between atoms: N_10  and  C_18 
REMARK    8  A    between atoms: C_20  and  C_28 
ROOT
ATOM      1  C   LIG d   1      19.982   5.914  -4.687  0.00  0.00     0.075 A 
ATOM      2  C   LIG d   1      20.341   4.714  -5.297  0.00  0.00     0.027 A 
ATOM      3  C   LIG d   1      18.640   6.229  -4.474  0.00  0.00     0.027 A 
ATOM      4  C   LIG d   1      17.975   4.137  -5.560  0.00  0.00     0.079 A 
ATOM      5  C   LIG d   1      19.337   3.844  -5.732  0.00  0.00     0.035 A 
ATOM      6  C   LIG d   1      17.656   5.344  -4.920  0.00  0.00     0.035 A 
ENDROOT
BRANCH   4   7
ATOM      7  N   LIG d   1      16.951   3.359  -5.984  0.00  0.00    -0.150 NA
BRANCH   7   8
ATOM      8  N   LIG d   1      17.192   1.896  -5.920  0.00  0.00    -0.150 NA
BRANCH   8   9
ATOM      9  C   LIG d   1      16.079   1.118  -5.796  0.00  0.00     0.080 A 
ATOM     10  C   LIG d   1      15.865   0.048  -6.707  0.00  0.00     0.054 A 
ATOM     11  C   LIG d   1      14.734  -0.809  -6.660  0.00  0.00     0.076 A 
ATOM     12  C   LIG d   1      13.786  -0.558  -5.653  0.00  0.00     0.082 A 
ATOM     13  C   LIG d   1      13.951   0.484  -4.747  0.00  0.00     0.040 A 
ATOM     14  C   LIG d   1      15.083   1.305  -4.825  0.00  0.00     0.036 A 
BRANCH  11  15
ATOM     15  C   LIG d   1      14.537  -1.951  -7.639  0.00  0.00     0.212 C 
ATOM     16  O   LIG d   1      15.537  -2.754  -7.775  0.00  0.00    -0.644 OA
ATOM     17  O   LIG d   1      13.439  -2.094  -8.270  0.00  0.00    -0.644 OA
ENDBRANCH  11  15
BRANCH  12  18
ATOM     18  O   LIG d   1      12.652  -1.330  -5.515  0.00  0.00    -0.360 OA
ATOM     19  H   LIG d   1      12.747  -2.005  -6.239  0.00  0.00     0.217 HD
ENDBRANCH  12  18
ENDBRANCH   8   9
ENDBRANCH   7   8
ENDBRANCH   4   7
BRANCH   1  20
ATOM     20  S   LIG d   1      21.224   7.059  -4.176  0.00  0.00     0.247 S 
ATOM     21  O   LIG d   1      21.639   6.724  -2.824  0.00  0.00    -0.205 OA
ATOM     22  O   LIG d   1      22.229   7.208  -5.212  0.00  0.00    -0.205 OA
BRANCH  20  23
ATOM     23  N   LIG d   1      20.372   8.527  -4.029  0.00  0.00    -0.165 NA
ATOM     24  H   LIG d   1      20.797   9.189  -4.679  0.00  0.00     0.147 HD
BRANCH  23  25
ATOM     25  C   LIG d   1      20.441   9.134  -2.755  0.00  0.00     0.116 C 
ATOM     26  N   LIG d   1      21.610   9.766  -2.581  0.00  0.00    -0.248 NA
ATOM     27  C   LIG d   1      21.833  10.272  -1.349  0.00  0.00     0.118 C 
ATOM     28  C   LIG d   1      20.888  10.269  -0.334  0.00  0.00     0.019 C 
ATOM     29  C   LIG d   1      19.647   9.695  -0.589  0.00  0.00     0.005 C 
ATOM     30  C   LIG d   1      19.414   9.109  -1.828  0.00  0.00     0.045 C 
ENDBRANCH  23  25
ENDBRANCH  20  23
ENDBRANCH   1  20
TORSDOF 8
ENDMDL
MODEL 8
REMARK minimizedAffinity -6.98966885REMARK CNNscore 0.30456093REMARK CNNaffinity 4.78275681REMARK  8 active torsions:
REMARK  status: ('A' for Active; 'I' for Inactive)
REMARK    1  A    between atoms: S_1  and  N_7 
REMARK    2  A    between atoms: S_1  and  C_11 
REMARK    3  A    between atoms: O_4  and  C_22 
REMARK    4  A    between atoms: N_7  and  C_17 
REMARK    5  A    between atoms: N_8  and  N_10 
REMARK    6  A    between atoms: N_8  and  C_14 
REMARK    7  A    between atoms: N_10  and  C_18 
REMARK    8  A    between atoms: C_20  and  C_28 
ROOT
ATOM      1  C   LIG d   1       8.702  16.563   2.250  0.00  0.00     0.075 A 
ATOM      2  C   LIG d   1       9.806  16.636   1.404  0.00  0.00     0.027 A 
ATOM      3  C   LIG d   1       7.651  17.470   2.127  0.00  0.00     0.027 A 
ATOM      4  C   LIG d   1       8.841  18.607   0.314  0.00  0.00     0.079 A 
ATOM      5  C   LIG d   1       9.867  17.658   0.451  0.00  0.00     0.035 A 
ATOM      6  C   LIG d   1       7.737  18.484   1.170  0.00  0.00     0.035 A 
ENDROOT
BRANCH   4   7
ATOM      7  N   LIG d   1       8.848  19.640  -0.561  0.00  0.00    -0.150 NA
BRANCH   7   8
ATOM      8  N   LIG d   1       7.623  20.476  -0.574  0.00  0.00    -0.150 NA
BRANCH   8   9
ATOM      9  C   LIG d   1       7.802  21.783  -0.921  0.00  0.00     0.080 A 
ATOM     10  C   LIG d   1       6.684  22.661  -0.951  0.00  0.00     0.054 A 
ATOM     11  C   LIG d   1       6.772  24.032  -1.306  0.00  0.00     0.076 A 
ATOM     12  C   LIG d   1       8.044  24.520  -1.651  0.00  0.00     0.082 A 
ATOM     13  C   LIG d   1       9.163  23.694  -1.644  0.00  0.00     0.040 A 
ATOM     14  C   LIG d   1       9.035  22.347  -1.284  0.00  0.00     0.036 A 
BRANCH  11  15
ATOM     15  C   LIG d   1       5.564  24.949  -1.320  0.00  0.00     0.212 C 
ATOM     16  O   LIG d   1       4.579  24.570  -2.062  0.00  0.00    -0.644 OA
ATOM     17  O   LIG d   1       5.542  26.018  -0.626  0.00  0.00    -0.644 OA
ENDBRANCH  11  15
BRANCH  12  18
ATOM     18  O   LIG d   1       8.245  25.837  -2.011  0.00  0.00    -0.360 OA
ATOM     19  H   LIG d   1       7.336  26.234  -1.933  0.00  0.00     0.217 HD
ENDBRANCH  12  18
ENDBRANCH   8   9
ENDBRANCH   7   8
ENDBRANCH   4   7
BRANCH   1  20
ATOM     20  S   LIG d   1       8.620  15.317   3.498  0.00  0.00     0.247 S 
ATOM     21  O   LIG d   1       9.697  15.537   4.448  0.00  0.00    -0.205 OA
ATOM     22  O   LIG d   1       7.259  15.180   3.985  0.00  0.00    -0.205 OA
BRANCH  20  23
ATOM     23  N   LIG d   1       9.045  13.894   2.664  0.00  0.00    -0.165 NA
ATOM     24  H   LIG d   1       8.856  14.056   1.674  0.00  0.00     0.147 HD
BRANCH  23  25
ATOM     25  C   LIG d   1       8.301  12.747   3.019  0.00  0.00     0.116 C 
ATOM     26  N   LIG d   1       7.353  12.482   2.108  0.00  0.00    -0.248 NA
ATOM     27  C   LIG d   1       6.499  11.482   2.415  0.00  0.00     0.118 C 
ATOM     28  C   LIG d   1       6.634  10.671   3.531  0.00  0.00     0.019 C 
ATOM     29  C   LIG d   1       7.695  10.912   4.398  0.00  0.00     0.005 C 
ATOM     30  C   LIG d   1       8.550  11.978   4.141  0.00  0.00     0.045 C 
ENDBRANCH  23  25
ENDBRANCH  20  23
ENDBRANCH   1  20
TORSDOF 8
ENDMDL
MODEL 9
REMARK minimizedAffinity -7.2058816REMARK CNNscore 0.278104573REMARK CNNaffinity 5.18325043REMARK  8 active torsions:
REMARK  status: ('A' for Active; 'I' for Inactive)
REMARK    1  A    between atoms: S_1  and  N_7 
REMARK    2  A    between atoms: S_1  and  C_11 
REMARK    3  A    between atoms: O_4  and  C_22 
REMARK    4  A    between atoms: N_7  and  C_17 
REMARK    5  A    between atoms: N_8  and  N_10 
REMARK    6  A    between atoms: N_8  and  C_14 
REMARK    7  A    between atoms: N_10  and  C_18 
REMARK    8  A    between atoms: C_20  and  C_28 
ROOT
ATOM      1  C   LIG d   1      21.568   9.492  -0.948  0.00  0.00     0.075 A 
ATOM      2  C   LIG d   1      22.886   9.532  -0.498  0.00  0.00     0.027 A 
ATOM      3  C   LIG d   1      20.511   9.742  -0.074  0.00  0.00     0.027 A 
ATOM      4  C   LIG d   1      22.098  10.018   1.770  0.00  0.00     0.079 A 
ATOM      5  C   LIG d   1      23.136   9.788   0.854  0.00  0.00     0.035 A 
ATOM      6  C   LIG d   1      20.787   9.992   1.272  0.00  0.00     0.035 A 
ENDROOT
BRANCH   4   7
ATOM      7  N   LIG d   1      22.265  10.239   3.095  0.00  0.00    -0.150 NA
BRANCH   7   8
ATOM      8  N   LIG d   1      23.372  11.158   3.456  0.00  0.00    -0.150 NA
BRANCH   8   9
ATOM      9  C   LIG d   1      23.227  11.823   4.638  0.00  0.00     0.080 A 
ATOM     10  C   LIG d   1      23.049  13.234   4.633  0.00  0.00     0.054 A 
ATOM     11  C   LIG d   1      22.897  14.010   5.811  0.00  0.00     0.076 A 
ATOM     12  C   LIG d   1      22.937  13.323   7.036  0.00  0.00     0.082 A 
ATOM     13  C   LIG d   1      23.118  11.945   7.088  0.00  0.00     0.040 A 
ATOM     14  C   LIG d   1      23.261  11.214   5.902  0.00  0.00     0.036 A 
BRANCH  11  15
ATOM     15  C   LIG d   1      22.698  15.514   5.776  0.00  0.00     0.212 C 
ATOM     16  O   LIG d   1      23.318  16.140   4.834  0.00  0.00    -0.644 OA
ATOM     17  O   LIG d   1      21.953  16.099   6.628  0.00  0.00    -0.644 OA
ENDBRANCH  11  15
BRANCH  12  18
ATOM     18  O   LIG d   1      22.798  13.978   8.242  0.00  0.00    -0.360 OA
ATOM     19  H   LIG d   1      22.668  14.927   7.971  0.00  0.00     0.217 HD
ENDBRANCH  12  18
ENDBRANCH   8   9
ENDBRANCH   7   8
ENDBRANCH   4   7
BRANCH   1  20
ATOM     20  S   LIG d   1      21.217   9.119  -2.637  0.00  0.00     0.247 S 
ATOM     21  O   LIG d   1      20.390  10.180  -3.186  0.00  0.00    -0.205 OA
ATOM     22  O   LIG d   1      22.431   8.732  -3.331  0.00  0.00    -0.205 OA
BRANCH  20  23
ATOM     23  N   LIG d   1      20.190   7.762  -2.536  0.00  0.00    -0.165 NA
ATOM     24  H   LIG d   1      20.759   6.976  -2.219  0.00  0.00     0.147 HD
BRANCH  23  25
ATOM     25  C   LIG d   1      19.614   7.356  -3.760  0.00  0.00     0.116 C 
ATOM     26  N   LIG d   1      18.302   7.117  -3.623  0.00  0.00    -0.248 NA
ATOM     27  C   LIG d   1      17.678   6.598  -4.703  0.00  0.00     0.118 C 
ATOM     28  C   LIG d   1      18.290   6.424  -5.935  0.00  0.00     0.019 C 
ATOM     29  C   LIG d   1      19.627   6.784  -6.064  0.00  0.00     0.005 C 
ATOM     30  C   LIG d   1      20.311   7.259  -4.951  0.00  0.00     0.045 C 
ENDBRANCH  23  25
ENDBRANCH  20  23
ENDBRANCH   1  20
TORSDOF 8
ENDMDL
