MODEL 1
REMARK minimizedAffinity -3.83483553REMARK CNNscore 0.595651805REMARK CNNaffinity 4.53941441REMARK  11 active torsions:
REMARK  status: ('A' for Active; 'I' for Inactive)
REMARK    1  A    between atoms: O_1  and  C_16 
REMARK    2  A    between atoms: O_1  and  C_23 
REMARK    3  A    between atoms: O_2  and  C_20 
REMARK    4  A    between atoms: N_8  and  C_22 
REMARK    5  A    between atoms: N_8  and  C_26 
REMARK    6  A    between atoms: N_9  and  C_24 
REMARK    7  A    between atoms: C_10  and  C_13 
REMARK    8  A    between atoms: C_11  and  C_16 
REMARK    9  A    between atoms: C_12  and  C_20 
REMARK   10  A    between atoms: C_22  and  C_23 
REMARK   11  A    between atoms: C_26  and  C_28 
ROOT
ATOM      1  N   LIG d   1      27.194   8.982  13.856  0.00  0.00    -0.362 N 
ATOM      2  C   LIG d   1      26.147   9.818  11.368  0.00  0.00     0.101 C 
ATOM      3  C   LIG d   1      26.749  10.786  12.391  0.00  0.00     0.052 C 
ATOM      4  C   LIG d   1      26.335   8.356  11.741  0.00  0.00     0.052 C 
ATOM      5  C   LIG d   1      27.245  10.338  13.568  0.00  0.00     0.018 C 
ATOM      6  C   LIG d   1      26.816   7.999  12.952  0.00  0.00     0.018 C 
ATOM      7  C   LIG d   1      27.909  11.202  14.609  0.00  0.00     0.069 C 
ATOM      8  C   LIG d   1      27.019   6.570  13.391  0.00  0.00     0.069 C 
ATOM      9  H   LIG d   1      27.636   8.667  14.719  0.00  0.00     0.165 HD
ENDROOT
BRANCH   3  10
ATOM     10  C   LIG d   1      26.718  12.200  11.963  0.00  0.00     0.292 C 
ATOM     11  O   LIG d   1      25.851  12.997  12.295  0.00  0.00    -0.259 OA
BRANCH  10  12
ATOM     12  O   LIG d   1      27.877  12.559  11.346  0.00  0.00    -0.316 OA
BRANCH  12  13
ATOM     13  C   LIG d   1      27.727  12.871   9.952  0.00  0.00     0.206 C 
BRANCH  13  14
ATOM     14  C   LIG d   1      27.707  14.393   9.761  0.00  0.00     0.261 C 
BRANCH  14  15
ATOM     15  N   LIG d   1      26.505  14.885   8.980  0.00  0.00    -0.069 N 
ATOM     16  C   LIG d   1      26.887  15.880   7.910  0.00  0.00     0.270 C 
ATOM     17  H   LIG d   1      25.860  15.359   9.622  0.00  0.00     0.279 HD
BRANCH  15  18
ATOM     18  C   LIG d   1      25.742  13.703   8.404  0.00  0.00     0.273 C 
BRANCH  18  19
ATOM     19  C   LIG d   1      24.248  13.799   8.541  0.00  0.00    -0.033 A 
ATOM     20  C   LIG d   1      23.422  13.467   7.455  0.00  0.00     0.009 A 
ATOM     21  C   LIG d   1      22.034  13.537   7.574  0.00  0.00     0.001 A 
ATOM     22  C   LIG d   1      21.456  13.941   8.775  0.00  0.00     0.000 A 
ATOM     23  C   LIG d   1      22.265  14.268   9.862  0.00  0.00     0.001 A 
ATOM     24  C   LIG d   1      23.654  14.194   9.750  0.00  0.00     0.009 A 
ENDBRANCH  18  19
ENDBRANCH  15  18
ENDBRANCH  14  15
ENDBRANCH  13  14
ENDBRANCH  12  13
ENDBRANCH  10  12
ENDBRANCH   3  10
BRANCH   2  25
ATOM     25  C   LIG d   1      24.658  10.126  11.137  0.00  0.00    -0.042 A 
ATOM     26  C   LIG d   1      23.802  10.314  12.234  0.00  0.00     0.044 A 
ATOM     27  C   LIG d   1      22.452  10.620  12.016  0.00  0.00     0.103 A 
ATOM     28  C   LIG d   1      21.935  10.735  10.720  0.00  0.00     0.036 A 
ATOM     29  C   LIG d   1      22.785  10.556   9.630  0.00  0.00     0.003 A 
ATOM     30  C   LIG d   1      24.135  10.259   9.836  0.00  0.00     0.008 A 
BRANCH  27  31
ATOM     31  N   LIG d   1      21.558  10.786  13.161  0.00  0.00    -0.116 N 
ATOM     32  O   LIG d   1      20.373  10.456  13.018  0.00  0.00    -0.532 OA
ATOM     33  O   LIG d   1      22.038  11.301  14.182  0.00  0.00    -0.532 OA
ENDBRANCH  27  31
ENDBRANCH   2  25
BRANCH   4  34
ATOM     34  C   LIG d   1      25.948   7.345  10.731  0.00  0.00     0.291 C 
ATOM     35  O   LIG d   1      24.872   6.772  10.699  0.00  0.00    -0.260 OA
BRANCH  34  36
ATOM     36  O   LIG d   1      26.978   7.165   9.865  0.00  0.00    -0.323 OA
ATOM     37  C   LIG d   1      26.641   7.409   8.499  0.00  0.00     0.213 C 
ENDBRANCH  34  36
ENDBRANCH   4  34
TORSDOF 11
ENDMDL
MODEL 2
REMARK minimizedAffinity -4.18492937REMARK CNNscore 0.412368268REMARK CNNaffinity 4.75808954REMARK  11 active torsions:
REMARK  status: ('A' for Active; 'I' for Inactive)
REMARK    1  A    between atoms: O_1  and  C_16 
REMARK    2  A    between atoms: O_1  and  C_23 
REMARK    3  A    between atoms: O_2  and  C_20 
REMARK    4  A    between atoms: N_8  and  C_22 
REMARK    5  A    between atoms: N_8  and  C_26 
REMARK    6  A    between atoms: N_9  and  C_24 
REMARK    7  A    between atoms: C_10  and  C_13 
REMARK    8  A    between atoms: C_11  and  C_16 
REMARK    9  A    between atoms: C_12  and  C_20 
REMARK   10  A    between atoms: C_22  and  C_23 
REMARK   11  A    between atoms: C_26  and  C_28 
ROOT
ATOM      1  N   LIG d   1       4.195   6.034   5.845  0.00  0.00    -0.362 N 
ATOM      2  C   LIG d   1       1.886   6.580   4.311  0.00  0.00     0.101 C 
ATOM      3  C   LIG d   1       1.879   5.659   5.534  0.00  0.00     0.052 C 
ATOM      4  C   LIG d   1       3.204   7.311   4.116  0.00  0.00     0.052 C 
ATOM      5  C   LIG d   1       3.010   5.431   6.243  0.00  0.00     0.018 C 
ATOM      6  C   LIG d   1       4.292   7.001   4.855  0.00  0.00     0.018 C 
ATOM      7  C   LIG d   1       3.091   4.592   7.491  0.00  0.00     0.069 C 
ATOM      8  C   LIG d   1       5.632   7.678   4.707  0.00  0.00     0.069 C 
ATOM      9  H   LIG d   1       5.014   5.899   6.437  0.00  0.00     0.165 HD
ENDROOT
BRANCH   3  10
ATOM     10  C   LIG d   1       0.556   5.068   5.828  0.00  0.00     0.292 C 
ATOM     11  O   LIG d   1       0.301   3.876   5.729  0.00  0.00    -0.259 OA
BRANCH  10  12
ATOM     12  O   LIG d   1      -0.267   5.969   6.431  0.00  0.00    -0.316 OA
BRANCH  12  13
ATOM     13  C   LIG d   1      -0.516   5.698   7.820  0.00  0.00     0.206 C 
BRANCH  13  14
ATOM     14  C   LIG d   1      -1.221   6.899   8.464  0.00  0.00     0.261 C 
BRANCH  14  15
ATOM     15  N   LIG d   1      -0.269   7.860   9.147  0.00  0.00    -0.069 N 
ATOM     16  C   LIG d   1      -0.749   8.260  10.522  0.00  0.00     0.270 C 
ATOM     17  H   LIG d   1      -0.198   8.717   8.586  0.00  0.00     0.279 HD
BRANCH  15  18
ATOM     18  C   LIG d   1       1.128   7.261   9.189  0.00  0.00     0.273 C 
BRANCH  18  19
ATOM     19  C   LIG d   1       2.188   8.105   8.537  0.00  0.00    -0.033 A 
ATOM     20  C   LIG d   1       1.844   8.979   7.493  0.00  0.00     0.009 A 
ATOM     21  C   LIG d   1       2.815   9.778   6.891  0.00  0.00     0.001 A 
ATOM     22  C   LIG d   1       4.139   9.712   7.320  0.00  0.00     0.000 A 
ATOM     23  C   LIG d   1       4.492   8.852   8.358  0.00  0.00     0.001 A 
ATOM     24  C   LIG d   1       3.523   8.054   8.968  0.00  0.00     0.009 A 
ENDBRANCH  18  19
ENDBRANCH  15  18
ENDBRANCH  14  15
ENDBRANCH  13  14
ENDBRANCH  12  13
ENDBRANCH  10  12
ENDBRANCH   3  10
BRANCH   2  25
ATOM     25  C   LIG d   1       1.510   5.800   3.039  0.00  0.00    -0.042 A 
ATOM     26  C   LIG d   1       0.410   6.204   2.267  0.00  0.00     0.044 A 
ATOM     27  C   LIG d   1       0.088   5.505   1.096  0.00  0.00     0.103 A 
ATOM     28  C   LIG d   1       0.842   4.400   0.682  0.00  0.00     0.036 A 
ATOM     29  C   LIG d   1       1.940   4.002   1.443  0.00  0.00     0.003 A 
ATOM     30  C   LIG d   1       2.274   4.697   2.608  0.00  0.00     0.008 A 
BRANCH  27  31
ATOM     31  N   LIG d   1      -1.076   5.912   0.311  0.00  0.00    -0.116 N 
ATOM     32  O   LIG d   1      -2.197   5.665   0.775  0.00  0.00    -0.532 OA
ATOM     33  O   LIG d   1      -0.859   6.429  -0.795  0.00  0.00    -0.532 OA
ENDBRANCH  27  31
ENDBRANCH   2  25
BRANCH   4  34
ATOM     34  C   LIG d   1       3.249   8.357   3.069  0.00  0.00     0.291 C 
ATOM     35  O   LIG d   1       3.826   8.245   1.999  0.00  0.00    -0.260 OA
BRANCH  34  36
ATOM     36  O   LIG d   1       2.555   9.442   3.495  0.00  0.00    -0.323 OA
ATOM     37  C   LIG d   1       1.691  10.007   2.508  0.00  0.00     0.213 C 
ENDBRANCH  34  36
ENDBRANCH   4  34
TORSDOF 11
ENDMDL
MODEL 3
REMARK minimizedAffinity -5.49723434REMARK CNNscore 0.351655543REMARK CNNaffinity 4.57583666REMARK  11 active torsions:
REMARK  status: ('A' for Active; 'I' for Inactive)
REMARK    1  A    between atoms: O_1  and  C_16 
REMARK    2  A    between atoms: O_1  and  C_23 
REMARK    3  A    between atoms: O_2  and  C_20 
REMARK    4  A    between atoms: N_8  and  C_22 
REMARK    5  A    between atoms: N_8  and  C_26 
REMARK    6  A    between atoms: N_9  and  C_24 
REMARK    7  A    between atoms: C_10  and  C_13 
REMARK    8  A    between atoms: C_11  and  C_16 
REMARK    9  A    between atoms: C_12  and  C_20 
REMARK   10  A    between atoms: C_22  and  C_23 
REMARK   11  A    between atoms: C_26  and  C_28 
ROOT
ATOM      1  N   LIG d   1      24.364  10.267   8.935  0.00  0.00    -0.362 N 
ATOM      2  C   LIG d   1      22.845  12.615   9.339  0.00  0.00     0.101 C 
ATOM      3  C   LIG d   1      23.403  12.203   7.973  0.00  0.00     0.052 C 
ATOM      4  C   LIG d   1      23.030  11.551  10.409  0.00  0.00     0.052 C 
ATOM      5  C   LIG d   1      24.121  11.065   7.827  0.00  0.00     0.018 C 
ATOM      6  C   LIG d   1      23.786  10.454  10.182  0.00  0.00     0.018 C 
ATOM      7  C   LIG d   1      24.658  10.547   6.518  0.00  0.00     0.069 C 
ATOM      8  C   LIG d   1      24.019   9.366  11.201  0.00  0.00     0.069 C 
ATOM      9  H   LIG d   1      24.848   9.383   8.782  0.00  0.00     0.165 HD
ENDROOT
BRANCH   3  10
ATOM     10  C   LIG d   1      23.087  13.157   6.889  0.00  0.00     0.292 C 
ATOM     11  O   LIG d   1      23.906  13.568   6.079  0.00  0.00    -0.259 OA
BRANCH  10  12
ATOM     12  O   LIG d   1      21.744  13.342   6.765  0.00  0.00    -0.316 OA
BRANCH  12  13
ATOM     13  C   LIG d   1      21.380  14.455   5.933  0.00  0.00     0.206 C 
BRANCH  13  14
ATOM     14  C   LIG d   1      21.356  15.741   6.771  0.00  0.00     0.261 C 
BRANCH  14  15
ATOM     15  N   LIG d   1      22.259  16.830   6.227  0.00  0.00    -0.069 N 
ATOM     16  C   LIG d   1      23.565  16.919   6.981  0.00  0.00     0.270 C 
ATOM     17  H   LIG d   1      21.787  17.736   6.326  0.00  0.00     0.279 HD
BRANCH  15  18
ATOM     18  C   LIG d   1      22.479  16.623   4.738  0.00  0.00     0.273 C 
BRANCH  18  19
ATOM     19  C   LIG d   1      22.404  17.880   3.916  0.00  0.00    -0.033 A 
ATOM     20  C   LIG d   1      22.948  17.905   2.622  0.00  0.00     0.009 A 
ATOM     21  C   LIG d   1      22.870  19.060   1.844  0.00  0.00     0.001 A 
ATOM     22  C   LIG d   1      22.253  20.202   2.349  0.00  0.00     0.000 A 
ATOM     23  C   LIG d   1      21.705  20.188   3.630  0.00  0.00     0.001 A 
ATOM     24  C   LIG d   1      21.775  19.033   4.410  0.00  0.00     0.009 A 
ENDBRANCH  18  19
ENDBRANCH  15  18
ENDBRANCH  14  15
ENDBRANCH  13  14
ENDBRANCH  12  13
ENDBRANCH  10  12
ENDBRANCH   3  10
BRANCH   2  25
ATOM     25  C   LIG d   1      23.456  13.950   9.797  0.00  0.00    -0.042 A 
ATOM     26  C   LIG d   1      22.620  15.029  10.123  0.00  0.00     0.044 A 
ATOM     27  C   LIG d   1      23.182  16.235  10.564  0.00  0.00     0.103 A 
ATOM     28  C   LIG d   1      24.568  16.388  10.681  0.00  0.00     0.036 A 
ATOM     29  C   LIG d   1      25.400  15.316  10.365  0.00  0.00     0.003 A 
ATOM     30  C   LIG d   1      24.850  14.106   9.931  0.00  0.00     0.008 A 
BRANCH  27  31
ATOM     31  N   LIG d   1      22.307  17.365  10.875  0.00  0.00    -0.116 N 
ATOM     32  O   LIG d   1      22.490  18.421  10.254  0.00  0.00    -0.532 OA
ATOM     33  O   LIG d   1      21.477  17.204  11.781  0.00  0.00    -0.532 OA
ENDBRANCH  27  31
ENDBRANCH   2  25
BRANCH   4  34
ATOM     34  C   LIG d   1      22.366  11.780  11.713  0.00  0.00     0.291 C 
ATOM     35  O   LIG d   1      22.879  12.347  12.663  0.00  0.00    -0.260 OA
BRANCH  34  36
ATOM     36  O   LIG d   1      21.114  11.259  11.671  0.00  0.00    -0.323 OA
ATOM     37  C   LIG d   1      20.797  10.412  12.777  0.00  0.00     0.213 C 
ENDBRANCH  34  36
ENDBRANCH   4  34
TORSDOF 11
ENDMDL
MODEL 4
REMARK minimizedAffinity -5.47884274REMARK CNNscore 0.338228494REMARK CNNaffinity 4.61036062REMARK  11 active torsions:
REMARK  status: ('A' for Active; 'I' for Inactive)
REMARK    1  A    between atoms: O_1  and  C_16 
REMARK    2  A    between atoms: O_1  and  C_23 
REMARK    3  A    between atoms: O_2  and  C_20 
REMARK    4  A    between atoms: N_8  and  C_22 
REMARK    5  A    between atoms: N_8  and  C_26 
REMARK    6  A    between atoms: N_9  and  C_24 
REMARK    7  A    between atoms: C_10  and  C_13 
REMARK    8  A    between atoms: C_11  and  C_16 
REMARK    9  A    between atoms: C_12  and  C_20 
REMARK   10  A    between atoms: C_22  and  C_23 
REMARK   11  A    between atoms: C_26  and  C_28 
ROOT
ATOM      1  N   LIG d   1      26.126  10.047   8.939  0.00  0.00    -0.362 N 
ATOM      2  C   LIG d   1      23.542  11.159   8.673  0.00  0.00     0.101 C 
ATOM      3  C   LIG d   1      24.561  11.127   7.530  0.00  0.00     0.052 C 
ATOM      4  C   LIG d   1      23.987  10.374   9.897  0.00  0.00     0.052 C 
ATOM      5  C   LIG d   1      25.786  10.578   7.703  0.00  0.00     0.018 C 
ATOM      6  C   LIG d   1      25.240   9.881   9.994  0.00  0.00     0.018 C 
ATOM      7  C   LIG d   1      26.831  10.446   6.625  0.00  0.00     0.069 C 
ATOM      8  C   LIG d   1      25.750   9.103  11.182  0.00  0.00     0.069 C 
ATOM      9  H   LIG d   1      27.028   9.580   9.019  0.00  0.00     0.165 HD
ENDROOT
BRANCH   3  10
ATOM     10  C   LIG d   1      24.073  11.746   6.280  0.00  0.00     0.292 C 
ATOM     11  O   LIG d   1      24.170  12.938   6.024  0.00  0.00    -0.259 OA
BRANCH  10  12
ATOM     12  O   LIG d   1      23.713  10.804   5.366  0.00  0.00    -0.316 OA
BRANCH  12  13
ATOM     13  C   LIG d   1      23.569  11.309   4.028  0.00  0.00     0.206 C 
BRANCH  13  14
ATOM     14  C   LIG d   1      23.641  10.149   3.027  0.00  0.00     0.261 C 
BRANCH  14  15
ATOM     15  N   LIG d   1      23.417  10.580   1.591  0.00  0.00    -0.069 N 
ATOM     16  C   LIG d   1      24.693  11.038   0.926  0.00  0.00     0.270 C 
ATOM     17  H   LIG d   1      22.764  11.372   1.578  0.00  0.00     0.279 HD
BRANCH  15  18
ATOM     18  C   LIG d   1      22.746   9.460   0.813  0.00  0.00     0.273 C 
BRANCH  18  19
ATOM     19  C   LIG d   1      21.549   9.889   0.009  0.00  0.00    -0.033 A 
ATOM     20  C   LIG d   1      21.692  10.192  -1.354  0.00  0.00     0.009 A 
ATOM     21  C   LIG d   1      20.587  10.575  -2.113  0.00  0.00     0.001 A 
ATOM     22  C   LIG d   1      19.330  10.663  -1.521  0.00  0.00     0.000 A 
ATOM     23  C   LIG d   1      19.174  10.360  -0.170  0.00  0.00     0.001 A 
ATOM     24  C   LIG d   1      20.275   9.970   0.593  0.00  0.00     0.009 A 
ENDBRANCH  18  19
ENDBRANCH  15  18
ENDBRANCH  14  15
ENDBRANCH  13  14
ENDBRANCH  12  13
ENDBRANCH  10  12
ENDBRANCH   3  10
BRANCH   2  25
ATOM     25  C   LIG d   1      23.200  12.608   9.058  0.00  0.00    -0.042 A 
ATOM     26  C   LIG d   1      24.189  13.441   9.606  0.00  0.00     0.044 A 
ATOM     27  C   LIG d   1      23.878  14.767   9.931  0.00  0.00     0.103 A 
ATOM     28  C   LIG d   1      22.592  15.281   9.727  0.00  0.00     0.036 A 
ATOM     29  C   LIG d   1      21.610  14.459   9.177  0.00  0.00     0.003 A 
ATOM     30  C   LIG d   1      21.912  13.136   8.841  0.00  0.00     0.008 A 
BRANCH  27  31
ATOM     31  N   LIG d   1      24.904  15.622  10.528  0.00  0.00    -0.116 N 
ATOM     32  O   LIG d   1      25.205  15.417  11.711  0.00  0.00    -0.532 OA
ATOM     33  O   LIG d   1      25.362  16.531   9.821  0.00  0.00    -0.532 OA
ENDBRANCH  27  31
ENDBRANCH   2  25
BRANCH   4  34
ATOM     34  C   LIG d   1      22.995  10.196  10.983  0.00  0.00     0.291 C 
ATOM     35  O   LIG d   1      22.037   9.443  10.931  0.00  0.00    -0.260 OA
BRANCH  34  36
ATOM     36  O   LIG d   1      23.327  11.000  12.024  0.00  0.00    -0.323 OA
ATOM     37  C   LIG d   1      22.247  11.795  12.515  0.00  0.00     0.213 C 
ENDBRANCH  34  36
ENDBRANCH   4  34
TORSDOF 11
ENDMDL
MODEL 5
REMARK minimizedAffinity -4.94491243REMARK CNNscore 0.327922553REMARK CNNaffinity 4.53284454REMARK  11 active torsions:
REMARK  status: ('A' for Active; 'I' for Inactive)
REMARK    1  A    between atoms: O_1  and  C_16 
REMARK    2  A    between atoms: O_1  and  C_23 
REMARK    3  A    between atoms: O_2  and  C_20 
REMARK    4  A    between atoms: N_8  and  C_22 
REMARK    5  A    between atoms: N_8  and  C_26 
REMARK    6  A    between atoms: N_9  and  C_24 
REMARK    7  A    between atoms: C_10  and  C_13 
REMARK    8  A    between atoms: C_11  and  C_16 
REMARK    9  A    between atoms: C_12  and  C_20 
REMARK   10  A    between atoms: C_22  and  C_23 
REMARK   11  A    between atoms: C_26  and  C_28 
ROOT
ATOM      1  N   LIG d   1      29.331  -3.645  21.591  0.00  0.00    -0.362 N 
ATOM      2  C   LIG d   1      26.712  -2.747  22.156  0.00  0.00     0.101 C 
ATOM      3  C   LIG d   1      27.966  -2.096  22.748  0.00  0.00     0.052 C 
ATOM      4  C   LIG d   1      27.021  -3.795  21.099  0.00  0.00     0.052 C 
ATOM      5  C   LIG d   1      29.202  -2.558  22.444  0.00  0.00     0.018 C 
ATOM      6  C   LIG d   1      28.286  -4.214  20.878  0.00  0.00     0.018 C 
ATOM      7  C   LIG d   1      30.492  -1.949  22.927  0.00  0.00     0.069 C 
ATOM      8  C   LIG d   1      28.662  -5.256  19.853  0.00  0.00     0.069 C 
ATOM      9  H   LIG d   1      30.275  -3.926  21.327  0.00  0.00     0.165 HD
ENDROOT
BRANCH   3  10
ATOM     10  C   LIG d   1      27.679  -0.965  23.655  0.00  0.00     0.292 C 
ATOM     11  O   LIG d   1      27.933  -0.966  24.851  0.00  0.00    -0.259 OA
BRANCH  10  12
ATOM     12  O   LIG d   1      27.308   0.146  22.962  0.00  0.00    -0.316 OA
BRANCH  12  13
ATOM     13  C   LIG d   1      26.105   0.765  23.447  0.00  0.00     0.206 C 
BRANCH  13  14
ATOM     14  C   LIG d   1      26.060   2.231  22.994  0.00  0.00     0.261 C 
BRANCH  14  15
ATOM     15  N   LIG d   1      24.694   2.867  23.152  0.00  0.00    -0.069 N 
ATOM     16  C   LIG d   1      23.894   2.234  24.267  0.00  0.00     0.270 C 
ATOM     17  H   LIG d   1      24.162   2.738  22.284  0.00  0.00     0.279 HD
BRANCH  15  18
ATOM     18  C   LIG d   1      24.840   4.368  23.344  0.00  0.00     0.273 C 
BRANCH  18  19
ATOM     19  C   LIG d   1      24.045   5.201  22.376  0.00  0.00    -0.033 A 
ATOM     20  C   LIG d   1      24.463   5.313  21.041  0.00  0.00     0.009 A 
ATOM     21  C   LIG d   1      23.725   6.069  20.130  0.00  0.00     0.001 A 
ATOM     22  C   LIG d   1      22.567   6.723  20.542  0.00  0.00     0.000 A 
ATOM     23  C   LIG d   1      22.139   6.615  21.864  0.00  0.00     0.001 A 
ATOM     24  C   LIG d   1      22.870   5.855  22.778  0.00  0.00     0.009 A 
ENDBRANCH  18  19
ENDBRANCH  15  18
ENDBRANCH  14  15
ENDBRANCH  13  14
ENDBRANCH  12  13
ENDBRANCH  10  12
ENDBRANCH   3  10
BRANCH   2  25
ATOM     25  C   LIG d   1      25.833  -3.346  23.266  0.00  0.00    -0.042 A 
ATOM     26  C   LIG d   1      26.309  -4.420  24.035  0.00  0.00     0.044 A 
ATOM     27  C   LIG d   1      25.512  -4.945  25.062  0.00  0.00     0.103 A 
ATOM     28  C   LIG d   1      24.243  -4.422  25.334  0.00  0.00     0.036 A 
ATOM     29  C   LIG d   1      23.772  -3.351  24.576  0.00  0.00     0.003 A 
ATOM     30  C   LIG d   1      24.561  -2.815  23.555  0.00  0.00     0.008 A 
BRANCH  27  31
ATOM     31  N   LIG d   1      26.000  -6.083  25.840  0.00  0.00    -0.116 N 
ATOM     32  O   LIG d   1      26.972  -5.896  26.583  0.00  0.00    -0.532 OA
ATOM     33  O   LIG d   1      25.438  -7.173  25.660  0.00  0.00    -0.532 OA
ENDBRANCH  27  31
ENDBRANCH   2  25
BRANCH   4  34
ATOM     34  C   LIG d   1      25.876  -4.349  20.341  0.00  0.00     0.291 C 
ATOM     35  O   LIG d   1      25.401  -5.460  20.514  0.00  0.00    -0.260 OA
BRANCH  34  36
ATOM     36  O   LIG d   1      25.456  -3.430  19.435  0.00  0.00    -0.323 OA
ATOM     37  C   LIG d   1      25.707  -3.792  18.076  0.00  0.00     0.213 C 
ENDBRANCH  34  36
ENDBRANCH   4  34
TORSDOF 11
ENDMDL
MODEL 6
REMARK minimizedAffinity -5.01056814REMARK CNNscore 0.312338918REMARK CNNaffinity 4.97440004REMARK  11 active torsions:
REMARK  status: ('A' for Active; 'I' for Inactive)
REMARK    1  A    between atoms: O_1  and  C_16 
REMARK    2  A    between atoms: O_1  and  C_23 
REMARK    3  A    between atoms: O_2  and  C_20 
REMARK    4  A    between atoms: N_8  and  C_22 
REMARK    5  A    between atoms: N_8  and  C_26 
REMARK    6  A    between atoms: N_9  and  C_24 
REMARK    7  A    between atoms: C_10  and  C_13 
REMARK    8  A    between atoms: C_11  and  C_16 
REMARK    9  A    between atoms: C_12  and  C_20 
REMARK   10  A    between atoms: C_22  and  C_23 
REMARK   11  A    between atoms: C_26  and  C_28 
ROOT
ATOM      1  N   LIG d   1       8.652  17.934   7.050  0.00  0.00    -0.362 N 
ATOM      2  C   LIG d   1       9.022  19.272   4.589  0.00  0.00     0.101 C 
ATOM      3  C   LIG d   1       7.806  19.500   5.492  0.00  0.00     0.052 C 
ATOM      4  C   LIG d   1      10.091  18.401   5.230  0.00  0.00     0.052 C 
ATOM      5  C   LIG d   1       7.674  18.840   6.666  0.00  0.00     0.018 C 
ATOM      6  C   LIG d   1       9.863  17.759   6.397  0.00  0.00     0.018 C 
ATOM      7  C   LIG d   1       6.548  19.041   7.647  0.00  0.00     0.069 C 
ATOM      8  C   LIG d   1      10.874  16.873   7.082  0.00  0.00     0.069 C 
ATOM      9  H   LIG d   1       8.560  17.504   7.970  0.00  0.00     0.165 HD
ENDROOT
BRANCH   3  10
ATOM     10  C   LIG d   1       6.835  20.474   4.948  0.00  0.00     0.292 C 
ATOM     11  O   LIG d   1       5.690  20.190   4.624  0.00  0.00    -0.259 OA
BRANCH  10  12
ATOM     12  O   LIG d   1       7.293  21.750   5.063  0.00  0.00    -0.316 OA
BRANCH  12  13
ATOM     13  C   LIG d   1       7.282  22.490   3.832  0.00  0.00     0.206 C 
BRANCH  13  14
ATOM     14  C   LIG d   1       8.709  22.939   3.486  0.00  0.00     0.261 C 
BRANCH  14  15
ATOM     15  N   LIG d   1       8.767  23.911   2.325  0.00  0.00    -0.069 N 
ATOM     16  C   LIG d   1       9.598  25.132   2.643  0.00  0.00     0.270 C 
ATOM     17  H   LIG d   1       7.817  24.235   2.111  0.00  0.00     0.279 HD
BRANCH  15  18
ATOM     18  C   LIG d   1       9.266  23.199   1.078  0.00  0.00     0.273 C 
BRANCH  18  19
ATOM     19  C   LIG d   1       8.322  23.255  -0.092  0.00  0.00    -0.033 A 
ATOM     20  C   LIG d   1       8.829  23.301  -1.400  0.00  0.00     0.009 A 
ATOM     21  C   LIG d   1       7.964  23.337  -2.493  0.00  0.00     0.001 A 
ATOM     22  C   LIG d   1       6.586  23.330  -2.293  0.00  0.00     0.000 A 
ATOM     23  C   LIG d   1       6.070  23.278  -1.000  0.00  0.00     0.001 A 
ATOM     24  C   LIG d   1       6.931  23.237   0.098  0.00  0.00     0.009 A 
ENDBRANCH  18  19
ENDBRANCH  15  18
ENDBRANCH  14  15
ENDBRANCH  13  14
ENDBRANCH  12  13
ENDBRANCH  10  12
ENDBRANCH   3  10
BRANCH   2  25
ATOM     25  C   LIG d   1       8.592  18.685   3.234  0.00  0.00    -0.042 A 
ATOM     26  C   LIG d   1       8.746  19.442   2.061  0.00  0.00     0.044 A 
ATOM     27  C   LIG d   1       8.376  18.892   0.827  0.00  0.00     0.103 A 
ATOM     28  C   LIG d   1       7.848  17.598   0.739  0.00  0.00     0.036 A 
ATOM     29  C   LIG d   1       7.701  16.843   1.900  0.00  0.00     0.003 A 
ATOM     30  C   LIG d   1       8.074  17.379   3.136  0.00  0.00     0.008 A 
BRANCH  27  31
ATOM     31  N   LIG d   1       8.511  19.695  -0.388  0.00  0.00    -0.116 N 
ATOM     32  O   LIG d   1       7.476  19.988  -1.001  0.00  0.00    -0.532 OA
ATOM     33  O   LIG d   1       9.661  19.980  -0.752  0.00  0.00    -0.532 OA
ENDBRANCH  27  31
ENDBRANCH   2  25
BRANCH   4  34
ATOM     34  C   LIG d   1      11.379  18.272   4.511  0.00  0.00     0.291 C 
ATOM     35  O   LIG d   1      11.702  17.309   3.835  0.00  0.00    -0.260 OA
BRANCH  34  36
ATOM     36  O   LIG d   1      12.124  19.384   4.730  0.00  0.00    -0.323 OA
ATOM     37  C   LIG d   1      13.519  19.211   4.478  0.00  0.00     0.213 C 
ENDBRANCH  34  36
ENDBRANCH   4  34
TORSDOF 11
ENDMDL
MODEL 7
REMARK minimizedAffinity -7.08050442REMARK CNNscore 0.312157154REMARK CNNaffinity 5.44242096REMARK  11 active torsions:
REMARK  status: ('A' for Active; 'I' for Inactive)
REMARK    1  A    between atoms: O_1  and  C_16 
REMARK    2  A    between atoms: O_1  and  C_23 
REMARK    3  A    between atoms: O_2  and  C_20 
REMARK    4  A    between atoms: N_8  and  C_22 
REMARK    5  A    between atoms: N_8  and  C_26 
REMARK    6  A    between atoms: N_9  and  C_24 
REMARK    7  A    between atoms: C_10  and  C_13 
REMARK    8  A    between atoms: C_11  and  C_16 
REMARK    9  A    between atoms: C_12  and  C_20 
REMARK   10  A    between atoms: C_22  and  C_23 
REMARK   11  A    between atoms: C_26  and  C_28 
ROOT
ATOM      1  N   LIG d   1      17.867  -1.655  -8.450  0.00  0.00    -0.362 N 
ATOM      2  C   LIG d   1      17.066  -1.526  -5.743  0.00  0.00     0.101 C 
ATOM      3  C   LIG d   1      18.485  -1.193  -6.212  0.00  0.00     0.052 C 
ATOM      4  C   LIG d   1      16.091  -1.749  -6.888  0.00  0.00     0.052 C 
ATOM      5  C   LIG d   1      18.822  -1.264  -7.521  0.00  0.00     0.018 C 
ATOM      6  C   LIG d   1      16.520  -1.830  -8.166  0.00  0.00     0.018 C 
ATOM      7  C   LIG d   1      20.170  -0.900  -8.086  0.00  0.00     0.069 C 
ATOM      8  C   LIG d   1      15.610  -2.060  -9.348  0.00  0.00     0.069 C 
ATOM      9  H   LIG d   1      18.130  -1.632  -9.434  0.00  0.00     0.165 HD
ENDROOT
BRANCH   3  10
ATOM     10  C   LIG d   1      19.402  -0.815  -5.116  0.00  0.00     0.292 C 
ATOM     11  O   LIG d   1      20.121  -1.605  -4.521  0.00  0.00    -0.259 OA
BRANCH  10  12
ATOM     12  O   LIG d   1      19.512   0.537  -5.005  0.00  0.00    -0.316 OA
BRANCH  12  13
ATOM     13  C   LIG d   1      20.655   0.973  -4.252  0.00  0.00     0.206 C 
BRANCH  13  14
ATOM     14  C   LIG d   1      20.207   1.925  -3.135  0.00  0.00     0.261 C 
BRANCH  14  15
ATOM     15  N   LIG d   1      19.680   3.249  -3.650  0.00  0.00    -0.069 N 
ATOM     16  C   LIG d   1      19.569   4.285  -2.557  0.00  0.00     0.270 C 
ATOM     17  H   LIG d   1      18.739   3.108  -4.035  0.00  0.00     0.279 HD
BRANCH  15  18
ATOM     18  C   LIG d   1      20.543   3.737  -4.803  0.00  0.00     0.273 C 
BRANCH  18  19
ATOM     19  C   LIG d   1      19.862   4.710  -5.725  0.00  0.00    -0.033 A 
ATOM     20  C   LIG d   1      18.959   4.244  -6.693  0.00  0.00     0.009 A 
ATOM     21  C   LIG d   1      18.309   5.139  -7.543  0.00  0.00     0.001 A 
ATOM     22  C   LIG d   1      18.554   6.506  -7.437  0.00  0.00     0.000 A 
ATOM     23  C   LIG d   1      19.444   6.982  -6.476  0.00  0.00     0.001 A 
ATOM     24  C   LIG d   1      20.093   6.091  -5.620  0.00  0.00     0.009 A 
ENDBRANCH  18  19
ENDBRANCH  15  18
ENDBRANCH  14  15
ENDBRANCH  13  14
ENDBRANCH  12  13
ENDBRANCH  10  12
ENDBRANCH   3  10
BRANCH   2  25
ATOM     25  C   LIG d   1      17.074  -2.740  -4.799  0.00  0.00    -0.042 A 
ATOM     26  C   LIG d   1      17.513  -3.989  -5.266  0.00  0.00     0.044 A 
ATOM     27  C   LIG d   1      17.542  -5.085  -4.393  0.00  0.00     0.103 A 
ATOM     28  C   LIG d   1      17.133  -4.961  -3.060  0.00  0.00     0.036 A 
ATOM     29  C   LIG d   1      16.704  -3.721  -2.593  0.00  0.00     0.003 A 
ATOM     30  C   LIG d   1      16.679  -2.619  -3.452  0.00  0.00     0.008 A 
BRANCH  27  31
ATOM     31  N   LIG d   1      17.972  -6.391  -4.892  0.00  0.00    -0.116 N 
ATOM     32  O   LIG d   1      18.438  -7.193  -4.073  0.00  0.00    -0.532 OA
ATOM     33  O   LIG d   1      17.892  -6.583  -6.115  0.00  0.00    -0.532 OA
ENDBRANCH  27  31
ENDBRANCH   2  25
BRANCH   4  34
ATOM     34  C   LIG d   1      14.659  -1.898  -6.538  0.00  0.00     0.291 C 
ATOM     35  O   LIG d   1      13.989  -1.045  -5.980  0.00  0.00    -0.260 OA
BRANCH  34  36
ATOM     36  O   LIG d   1      14.230  -3.122  -6.935  0.00  0.00    -0.323 OA
ATOM     37  C   LIG d   1      13.477  -3.825  -5.945  0.00  0.00     0.213 C 
ENDBRANCH  34  36
ENDBRANCH   4  34
TORSDOF 11
ENDMDL
MODEL 8
REMARK minimizedAffinity -5.620821REMARK CNNscore 0.270383686REMARK CNNaffinity 4.64914846REMARK  11 active torsions:
REMARK  status: ('A' for Active; 'I' for Inactive)
REMARK    1  A    between atoms: O_1  and  C_16 
REMARK    2  A    between atoms: O_1  and  C_23 
REMARK    3  A    between atoms: O_2  and  C_20 
REMARK    4  A    between atoms: N_8  and  C_22 
REMARK    5  A    between atoms: N_8  and  C_26 
REMARK    6  A    between atoms: N_9  and  C_24 
REMARK    7  A    between atoms: C_10  and  C_13 
REMARK    8  A    between atoms: C_11  and  C_16 
REMARK    9  A    between atoms: C_12  and  C_20 
REMARK   10  A    between atoms: C_22  and  C_23 
REMARK   11  A    between atoms: C_26  and  C_28 
ROOT
ATOM      1  N   LIG d   1      27.645  -3.330  22.927  0.00  0.00    -0.362 N 
ATOM      2  C   LIG d   1      24.822  -3.352  23.060  0.00  0.00     0.101 C 
ATOM      3  C   LIG d   1      25.605  -2.527  22.035  0.00  0.00     0.052 C 
ATOM      4  C   LIG d   1      25.699  -4.292  23.871  0.00  0.00     0.052 C 
ATOM      5  C   LIG d   1      26.958  -2.552  22.005  0.00  0.00     0.018 C 
ATOM      6  C   LIG d   1      27.047  -4.231  23.796  0.00  0.00     0.018 C 
ATOM      7  C   LIG d   1      27.813  -1.825  20.999  0.00  0.00     0.069 C 
ATOM      8  C   LIG d   1      27.976  -5.126  24.579  0.00  0.00     0.069 C 
ATOM      9  H   LIG d   1      28.659  -3.382  22.837  0.00  0.00     0.165 HD
ENDROOT
BRANCH   3  10
ATOM     10  C   LIG d   1      24.748  -1.731  21.131  0.00  0.00     0.292 C 
ATOM     11  O   LIG d   1      24.572  -0.526  21.241  0.00  0.00    -0.259 OA
BRANCH  10  12
ATOM     12  O   LIG d   1      24.366  -2.454  20.043  0.00  0.00    -0.316 OA
BRANCH  12  13
ATOM     13  C   LIG d   1      24.179  -1.669  18.854  0.00  0.00     0.206 C 
BRANCH  13  14
ATOM     14  C   LIG d   1      25.324  -1.942  17.868  0.00  0.00     0.261 C 
BRANCH  14  15
ATOM     15  N   LIG d   1      25.212  -3.285  17.174  0.00  0.00    -0.069 N 
ATOM     16  C   LIG d   1      24.672  -3.159  15.769  0.00  0.00     0.270 C 
ATOM     17  H   LIG d   1      24.561  -3.880  17.700  0.00  0.00     0.279 HD
BRANCH  15  18
ATOM     18  C   LIG d   1      26.555  -3.995  17.201  0.00  0.00     0.273 C 
BRANCH  18  19
ATOM     19  C   LIG d   1      26.840  -4.743  18.474  0.00  0.00    -0.033 A 
ATOM     20  C   LIG d   1      25.789  -5.342  19.185  0.00  0.00     0.009 A 
ATOM     21  C   LIG d   1      26.042  -6.052  20.358  0.00  0.00     0.001 A 
ATOM     22  C   LIG d   1      27.345  -6.170  20.835  0.00  0.00     0.000 A 
ATOM     23  C   LIG d   1      28.399  -5.584  20.136  0.00  0.00     0.001 A 
ATOM     24  C   LIG d   1      28.151  -4.877  18.958  0.00  0.00     0.009 A 
ENDBRANCH  18  19
ENDBRANCH  15  18
ENDBRANCH  14  15
ENDBRANCH  13  14
ENDBRANCH  12  13
ENDBRANCH  10  12
ENDBRANCH   3  10
BRANCH   2  25
ATOM     25  C   LIG d   1      24.011  -2.436  23.992  0.00  0.00    -0.042 A 
ATOM     26  C   LIG d   1      24.671  -1.643  24.945  0.00  0.00     0.044 A 
ATOM     27  C   LIG d   1      23.928  -0.792  25.774  0.00  0.00     0.103 A 
ATOM     28  C   LIG d   1      22.533  -0.720  25.675  0.00  0.00     0.036 A 
ATOM     29  C   LIG d   1      21.877  -1.500  24.725  0.00  0.00     0.003 A 
ATOM     30  C   LIG d   1      22.609  -2.347  23.888  0.00  0.00     0.008 A 
BRANCH  27  31
ATOM     31  N   LIG d   1      24.617   0.010  26.785  0.00  0.00    -0.116 N 
ATOM     32  O   LIG d   1      25.376  -0.579  27.566  0.00  0.00    -0.532 OA
ATOM     33  O   LIG d   1      24.349   1.220  26.824  0.00  0.00    -0.532 OA
ENDBRANCH  27  31
ENDBRANCH   2  25
BRANCH   4  34
ATOM     34  C   LIG d   1      25.014  -5.259  24.760  0.00  0.00     0.291 C 
ATOM     35  O   LIG d   1      24.906  -5.134  25.969  0.00  0.00    -0.260 OA
BRANCH  34  36
ATOM     36  O   LIG d   1      24.539  -6.288  24.014  0.00  0.00    -0.323 OA
ATOM     37  C   LIG d   1      25.364  -7.455  24.038  0.00  0.00     0.213 C 
ENDBRANCH  34  36
ENDBRANCH   4  34
TORSDOF 11
ENDMDL
MODEL 9
REMARK minimizedAffinity -6.23986721REMARK CNNscore 0.257033437REMARK CNNaffinity 5.35519886REMARK  11 active torsions:
REMARK  status: ('A' for Active; 'I' for Inactive)
REMARK    1  A    between atoms: O_1  and  C_16 
REMARK    2  A    between atoms: O_1  and  C_23 
REMARK    3  A    between atoms: O_2  and  C_20 
REMARK    4  A    between atoms: N_8  and  C_22 
REMARK    5  A    between atoms: N_8  and  C_26 
REMARK    6  A    between atoms: N_9  and  C_24 
REMARK    7  A    between atoms: C_10  and  C_13 
REMARK    8  A    between atoms: C_11  and  C_16 
REMARK    9  A    between atoms: C_12  and  C_20 
REMARK   10  A    between atoms: C_22  and  C_23 
REMARK   11  A    between atoms: C_26  and  C_28 
ROOT
ATOM      1  N   LIG d   1      10.786  21.505   4.015  0.00  0.00    -0.362 N 
ATOM      2  C   LIG d   1       8.690  20.516   2.397  0.00  0.00     0.101 C 
ATOM      3  C   LIG d   1      10.103  19.926   2.389  0.00  0.00     0.052 C 
ATOM      4  C   LIG d   1       8.479  21.556   3.487  0.00  0.00     0.052 C 
ATOM      5  C   LIG d   1      11.074  20.429   3.187  0.00  0.00     0.018 C 
ATOM      6  C   LIG d   1       9.514  22.020   4.221  0.00  0.00     0.018 C 
ATOM      7  C   LIG d   1      12.473  19.880   3.293  0.00  0.00     0.069 C 
ATOM      8  C   LIG d   1       9.378  23.056   5.309  0.00  0.00     0.069 C 
ATOM      9  H   LIG d   1      11.517  21.817   4.653  0.00  0.00     0.165 HD
ENDROOT
BRANCH   3  10
ATOM     10  C   LIG d   1      10.274  18.802   1.445  0.00  0.00     0.292 C 
ATOM     11  O   LIG d   1      10.692  18.926   0.302  0.00  0.00    -0.259 OA
BRANCH  10  12
ATOM     12  O   LIG d   1      10.125  17.602   2.068  0.00  0.00    -0.316 OA
BRANCH  12  13
ATOM     13  C   LIG d   1       9.359  16.643   1.321  0.00  0.00     0.206 C 
BRANCH  13  14
ATOM     14  C   LIG d   1       9.932  15.237   1.542  0.00  0.00     0.261 C 
BRANCH  14  15
ATOM     15  N   LIG d   1       8.913  14.249   2.070  0.00  0.00    -0.069 N 
ATOM     16  C   LIG d   1       9.479  13.372   3.162  0.00  0.00     0.270 C 
ATOM     17  H   LIG d   1       8.617  13.631   1.305  0.00  0.00     0.279 HD
BRANCH  15  18
ATOM     18  C   LIG d   1       7.665  14.987   2.529  0.00  0.00     0.273 C 
BRANCH  18  19
ATOM     19  C   LIG d   1       6.385  14.486   1.919  0.00  0.00    -0.033 A 
ATOM     20  C   LIG d   1       5.347  14.028   2.746  0.00  0.00     0.009 A 
ATOM     21  C   LIG d   1       4.149  13.576   2.193  0.00  0.00     0.001 A 
ATOM     22  C   LIG d   1       3.975  13.574   0.811  0.00  0.00     0.000 A 
ATOM     23  C   LIG d   1       4.996  14.032  -0.021  0.00  0.00     0.001 A 
ATOM     24  C   LIG d   1       6.195  14.490   0.528  0.00  0.00     0.009 A 
ENDBRANCH  18  19
ENDBRANCH  15  18
ENDBRANCH  14  15
ENDBRANCH  13  14
ENDBRANCH  12  13
ENDBRANCH  10  12
ENDBRANCH   3  10
BRANCH   2  25
ATOM     25  C   LIG d   1       8.336  21.102   1.020  0.00  0.00    -0.042 A 
ATOM     26  C   LIG d   1       8.927  22.302   0.594  0.00  0.00     0.044 A 
ATOM     27  C   LIG d   1       8.619  22.817  -0.672  0.00  0.00     0.103 A 
ATOM     28  C   LIG d   1       7.724  22.159  -1.524  0.00  0.00     0.036 A 
ATOM     29  C   LIG d   1       7.141  20.964  -1.106  0.00  0.00     0.003 A 
ATOM     30  C   LIG d   1       7.448  20.437   0.152  0.00  0.00     0.008 A 
BRANCH  27  31
ATOM     31  N   LIG d   1       9.215  24.082  -1.099  0.00  0.00    -0.116 N 
ATOM     32  O   LIG d   1      10.252  24.450  -0.531  0.00  0.00    -0.532 OA
ATOM     33  O   LIG d   1       8.608  24.729  -1.965  0.00  0.00    -0.532 OA
ENDBRANCH  27  31
ENDBRANCH   2  25
BRANCH   4  34
ATOM     34  C   LIG d   1       7.098  22.051   3.691  0.00  0.00     0.291 C 
ATOM     35  O   LIG d   1       6.640  23.059   3.178  0.00  0.00    -0.260 OA
BRANCH  34  36
ATOM     36  O   LIG d   1       6.445  21.211   4.532  0.00  0.00    -0.323 OA
ATOM     37  C   LIG d   1       5.043  21.463   4.636  0.00  0.00     0.213 C 
ENDBRANCH  34  36
ENDBRANCH   4  34
TORSDOF 11
ENDMDL
