MODEL 1
REMARK VINA RESULT:      -8.5      0.000      0.000
REMARK  13 active torsions:
REMARK  status: ('A' for Active; 'I' for Inactive)
REMARK    1  A    between atoms: O_4  and  C_21 
REMARK    2  A    between atoms: O_4  and  C_27 
REMARK    3  A    between atoms: O_5  and  C_43 
REMARK    4  A    between atoms: N_7  and  C_19 
REMARK    5  A    between atoms: N_9  and  C_33 
REMARK    6  A    between atoms: N_10  and  C_39 
REMARK    7  A    between atoms: N_12  and  C_40 
REMARK    8  A    between atoms: N_13  and  C_44 
REMARK    9  A    between atoms: C_15  and  C_19 
REMARK   10  A    between atoms: C_15  and  C_20 
REMARK   11  A    between atoms: C_17  and  C_21 
REMARK   12  A    between atoms: C_40  and  C_45 
REMARK   13  A    between atoms: C_40  and  C_43 
ROOT
ATOM      1  F   LIG d   1      11.049  19.017   2.602  0.00  0.00    -0.204 F 
ATOM      2  F   LIG d   1       9.464  21.546  -1.028  0.00  0.00    -0.204 F 
ATOM      3  C   LIG d   1       9.087  18.273   1.488  0.00  0.00     0.032 A 
ATOM      4  C   LIG d   1      10.132  19.195   1.641  0.00  0.00     0.141 A 
ATOM      5  C   LIG d   1       8.192  18.474   0.416  0.00  0.00     0.003 A 
ATOM      6  C   LIG d   1      10.257  20.306   0.812  0.00  0.00     0.059 A 
ATOM      7  C   LIG d   1       8.323  19.573  -0.434  0.00  0.00     0.030 A 
ATOM      8  C   LIG d   1       9.347  20.485  -0.220  0.00  0.00     0.142 A 
ENDROOT
BRANCH   3   9
ATOM      9  C   LIG d   1       8.951  17.051   2.397  0.00  0.00     0.136 C 
ATOM     10  O   LIG d   1      10.159  16.243   2.250  0.00  0.00    -0.353 OA
ATOM     11  C   LIG d   1       9.859  15.170   1.345  0.00  0.00     0.145 C 
ATOM     12  C   LIG d   1       8.479  14.729   1.775  0.00  0.00     0.063 C 
ATOM     13  C   LIG d   1       7.806  16.077   1.996  0.00  0.00     0.039 C 
BRANCH  12  14
ATOM     14  C   LIG d   1       8.614  13.885   3.044  0.00  0.00     0.151 C 
BRANCH  14  15
ATOM     15  O   LIG d   1       8.948  12.530   2.744  0.00  0.00    -0.331 OA
BRANCH  15  16
ATOM     16  C   LIG d   1       8.089  11.607   3.287  0.00  0.00     0.094 A 
ATOM     17  C   LIG d   1       8.164  11.105   4.580  0.00  0.00     0.026 A 
ATOM     18  C   LIG d   1       7.252  10.143   5.029  0.00  0.00     0.019 A 
ATOM     19  C   LIG d   1       6.233   9.625   4.217  0.00  0.00     0.056 A 
ATOM     20  C   LIG d   1       6.150  10.188   2.930  0.00  0.00     0.019 A 
ATOM     21  C   LIG d   1       7.062  11.155   2.467  0.00  0.00     0.026 A 
BRANCH  19  22
ATOM     22  N   LIG d   1       5.321   8.661   4.692  0.00  0.00    -0.345 N 
ATOM     23  C   LIG d   1       3.889   9.063   4.769  0.00  0.00     0.119 C 
ATOM     24  C   LIG d   1       3.041   8.015   5.524  0.00  0.00     0.101 C 
ATOM     25  N   LIG d   1       3.178   6.676   4.907  0.00  0.00    -0.249 NA
ATOM     26  C   LIG d   1       4.592   6.242   4.909  0.00  0.00     0.101 C 
ATOM     27  C   LIG d   1       5.489   7.267   4.186  0.00  0.00     0.119 C 
BRANCH  25  28
ATOM     28  C   LIG d   1       2.340   5.671   5.417  0.00  0.00     0.037 A 
ATOM     29  C   LIG d   1       2.661   4.882   6.521  0.00  0.00     0.013 A 
ATOM     30  C   LIG d   1       1.772   3.913   7.005  0.00  0.00     0.019 A 
ATOM     31  C   LIG d   1       0.524   3.700   6.409  0.00  0.00     0.070 A 
ATOM     32  C   LIG d   1       0.219   4.463   5.273  0.00  0.00     0.019 A 
ATOM     33  C   LIG d   1       1.115   5.426   4.787  0.00  0.00     0.013 A 
BRANCH  31  34
ATOM     34  N   LIG d   1      -0.403   2.781   6.959  0.00  0.00    -0.240 N 
ATOM     35  C   LIG d   1      -0.839   1.584   6.410  0.00  0.00     0.352 A 
ATOM     36  O   LIG d   1      -0.585   1.112   5.310  0.00  0.00    -0.244 OA
ATOM     37  N   LIG d   1      -1.667   1.007   7.387  0.00  0.00    -0.200 N 
ATOM     38  N   LIG d   1      -1.791   1.860   8.462  0.00  0.00    -0.144 NA
ATOM     39  C   LIG d   1      -1.032   2.861   8.151  0.00  0.00     0.207 A 
BRANCH  37  40
ATOM     40  C   LIG d   1      -2.531  -0.168   7.262  0.00  0.00     0.137 C 
BRANCH  40  41
ATOM     41  C   LIG d   1      -2.695  -0.882   8.619  0.00  0.00     0.027 C 
ATOM     42  C   LIG d   1      -1.379  -1.411   9.176  0.00  0.00     0.002 C 
ENDBRANCH  40  41
BRANCH  40  43
ATOM     43  C   LIG d   1      -3.915   0.109   6.604  0.00  0.00     0.133 C 
ATOM     44  C   LIG d   1      -4.873  -1.077   6.655  0.00  0.00     0.034 C 
BRANCH  43  45
ATOM     45  O   LIG d   1      -3.785   0.595   5.268  0.00  0.00    -0.383 OA
ATOM     46  H   LIG d   1      -4.042   1.531   5.245  0.00  0.00     0.210 HD
ENDBRANCH  43  45
ENDBRANCH  40  43
ENDBRANCH  37  40
ENDBRANCH  31  34
ENDBRANCH  25  28
ENDBRANCH  19  22
ENDBRANCH  15  16
ENDBRANCH  14  15
ENDBRANCH  12  14
BRANCH   9  47
ATOM     47  C   LIG d   1       8.790  17.469   3.878  0.00  0.00     0.161 C 
BRANCH  47  48
ATOM     48  N   LIG d   1       9.469  16.607   4.821  0.00  0.00    -0.228 N 
ATOM     49  N   LIG d   1      10.812  16.588   4.910  0.00  0.00    -0.145 NA
ATOM     50  C   LIG d   1      10.996  15.697   5.888  0.00  0.00     0.221 A 
ATOM     51  N   LIG d   1       9.854  15.191   6.440  0.00  0.00    -0.201 NA
ATOM     52  C   LIG d   1       8.907  15.792   5.756  0.00  0.00     0.197 A 
ENDBRANCH  47  48
ENDBRANCH   9  47
ENDBRANCH   3   9
TORSDOF 13
ENDMDL
MODEL 2
REMARK VINA RESULT:      -8.0     20.273     24.142
REMARK  13 active torsions:
REMARK  status: ('A' for Active; 'I' for Inactive)
REMARK    1  A    between atoms: O_4  and  C_21 
REMARK    2  A    between atoms: O_4  and  C_27 
REMARK    3  A    between atoms: O_5  and  C_43 
REMARK    4  A    between atoms: N_7  and  C_19 
REMARK    5  A    between atoms: N_9  and  C_33 
REMARK    6  A    between atoms: N_10  and  C_39 
REMARK    7  A    between atoms: N_12  and  C_40 
REMARK    8  A    between atoms: N_13  and  C_44 
REMARK    9  A    between atoms: C_15  and  C_19 
REMARK   10  A    between atoms: C_15  and  C_20 
REMARK   11  A    between atoms: C_17  and  C_21 
REMARK   12  A    between atoms: C_40  and  C_45 
REMARK   13  A    between atoms: C_40  and  C_43 
ROOT
ATOM      1  F   LIG d   1       8.225   3.413  22.757  0.00  0.00    -0.204 F 
ATOM      2  F   LIG d   1      10.486   7.491  23.340  0.00  0.00    -0.204 F 
ATOM      3  C   LIG d   1      10.573   3.352  23.114  0.00  0.00     0.032 A 
ATOM      4  C   LIG d   1       9.377   4.067  22.960  0.00  0.00     0.141 A 
ATOM      5  C   LIG d   1      11.742   4.091  23.394  0.00  0.00     0.003 A 
ATOM      6  C   LIG d   1       9.341   5.457  23.018  0.00  0.00     0.059 A 
ATOM      7  C   LIG d   1      11.711   5.484  23.476  0.00  0.00     0.030 A 
ATOM      8  C   LIG d   1      10.512   6.154  23.275  0.00  0.00     0.142 A 
ENDROOT
BRANCH   3   9
ATOM      9  C   LIG d   1      10.613   1.825  23.052  0.00  0.00     0.136 C 
ATOM     10  O   LIG d   1       9.354   1.320  23.595  0.00  0.00    -0.353 OA
ATOM     11  C   LIG d   1       9.592   0.925  24.954  0.00  0.00     0.145 C 
ATOM     12  C   LIG d   1      10.931   0.230  24.885  0.00  0.00     0.063 C 
ATOM     13  C   LIG d   1      11.694   1.174  23.963  0.00  0.00     0.039 C 
BRANCH  12  14
ATOM     14  C   LIG d   1      10.722  -1.171  24.306  0.00  0.00     0.151 C 
BRANCH  14  15
ATOM     15  O   LIG d   1      10.518  -2.140  25.333  0.00  0.00    -0.331 OA
BRANCH  15  16
ATOM     16  C   LIG d   1       9.442  -2.966  25.119  0.00  0.00     0.094 A 
ATOM     17  C   LIG d   1       9.246  -3.752  23.991  0.00  0.00     0.026 A 
ATOM     18  C   LIG d   1       8.098  -4.541  23.858  0.00  0.00     0.019 A 
ATOM     19  C   LIG d   1       7.086  -4.580  24.829  0.00  0.00     0.056 A 
ATOM     20  C   LIG d   1       7.336  -3.815  25.983  0.00  0.00     0.019 A 
ATOM     21  C   LIG d   1       8.486  -3.016  26.127  0.00  0.00     0.026 A 
BRANCH  19  22
ATOM     22  N   LIG d   1       5.941  -5.388  24.677  0.00  0.00    -0.345 N 
ATOM     23  C   LIG d   1       5.537  -5.734  23.287  0.00  0.00     0.119 C 
ATOM     24  C   LIG d   1       4.148  -6.410  23.246  0.00  0.00     0.101 C 
ATOM     25  N   LIG d   1       4.114  -7.607  24.117  0.00  0.00    -0.249 NA
ATOM     26  C   LIG d   1       4.433  -7.246  25.515  0.00  0.00     0.101 C 
ATOM     27  C   LIG d   1       5.804  -6.545  25.610  0.00  0.00     0.119 C 
BRANCH  25  28
ATOM     28  C   LIG d   1       2.949  -8.388  24.050  0.00  0.00     0.037 A 
ATOM     29  C   LIG d   1       2.003  -8.283  23.031  0.00  0.00     0.013 A 
ATOM     30  C   LIG d   1       0.873  -9.110  22.999  0.00  0.00     0.019 A 
ATOM     31  C   LIG d   1       0.648 -10.082  23.981  0.00  0.00     0.070 A 
ATOM     32  C   LIG d   1       1.576 -10.160  25.029  0.00  0.00     0.019 A 
ATOM     33  C   LIG d   1       2.702  -9.323  25.062  0.00  0.00     0.013 A 
BRANCH  31  34
ATOM     34  N   LIG d   1      -0.449 -10.973  23.892  0.00  0.00    -0.240 N 
ATOM     35  C   LIG d   1      -0.598 -12.054  23.035  0.00  0.00     0.352 A 
ATOM     36  O   LIG d   1       0.138 -12.415  22.128  0.00  0.00    -0.244 OA
ATOM     37  N   LIG d   1      -1.805 -12.664  23.414  0.00  0.00    -0.200 N 
ATOM     38  N   LIG d   1      -2.407 -11.936  24.417  0.00  0.00    -0.144 NA
ATOM     39  C   LIG d   1      -1.569 -10.977  24.648  0.00  0.00     0.207 A 
BRANCH  37  40
ATOM     40  C   LIG d   1      -2.532 -13.736  22.729  0.00  0.00     0.137 C 
BRANCH  40  41
ATOM     41  C   LIG d   1      -3.008 -13.278  21.336  0.00  0.00     0.027 C 
ATOM     42  C   LIG d   1      -4.074 -14.190  20.742  0.00  0.00     0.002 C 
ENDBRANCH  40  41
BRANCH  40  43
ATOM     43  C   LIG d   1      -1.766 -15.089  22.644  0.00  0.00     0.133 C 
ATOM     44  C   LIG d   1      -1.176 -15.550  23.973  0.00  0.00     0.034 C 
BRANCH  43  45
ATOM     45  O   LIG d   1      -0.766 -15.075  21.626  0.00  0.00    -0.383 OA
ATOM     46  H   LIG d   1      -0.584 -14.155  21.374  0.00  0.00     0.210 HD
ENDBRANCH  43  45
ENDBRANCH  40  43
ENDBRANCH  37  40
ENDBRANCH  31  34
ENDBRANCH  25  28
ENDBRANCH  19  22
ENDBRANCH  15  16
ENDBRANCH  14  15
ENDBRANCH  12  14
BRANCH   9  47
ATOM     47  C   LIG d   1      10.783   1.326  21.598  0.00  0.00     0.161 C 
BRANCH  47  48
ATOM     48  N   LIG d   1       9.572   0.810  20.996  0.00  0.00    -0.228 N 
ATOM     49  N   LIG d   1       8.775   1.595  20.247  0.00  0.00    -0.145 NA
ATOM     50  C   LIG d   1       7.820   0.731  19.890  0.00  0.00     0.221 A 
ATOM     51  N   LIG d   1       7.994  -0.548  20.336  0.00  0.00    -0.201 NA
ATOM     52  C   LIG d   1       9.112  -0.471  21.020  0.00  0.00     0.197 A 
ENDBRANCH  47  48
ENDBRANCH   9  47
ENDBRANCH   3   9
TORSDOF 13
ENDMDL
MODEL 3
REMARK VINA RESULT:      -7.9      5.708     16.768
REMARK  13 active torsions:
REMARK  status: ('A' for Active; 'I' for Inactive)
REMARK    1  A    between atoms: O_4  and  C_21 
REMARK    2  A    between atoms: O_4  and  C_27 
REMARK    3  A    between atoms: O_5  and  C_43 
REMARK    4  A    between atoms: N_7  and  C_19 
REMARK    5  A    between atoms: N_9  and  C_33 
REMARK    6  A    between atoms: N_10  and  C_39 
REMARK    7  A    between atoms: N_12  and  C_40 
REMARK    8  A    between atoms: N_13  and  C_44 
REMARK    9  A    between atoms: C_15  and  C_19 
REMARK   10  A    between atoms: C_15  and  C_20 
REMARK   11  A    between atoms: C_17  and  C_21 
REMARK   12  A    between atoms: C_40  and  C_45 
REMARK   13  A    between atoms: C_40  and  C_43 
ROOT
ATOM      1  F   LIG d   1      -1.709   4.028   3.430  0.00  0.00    -0.204 F 
ATOM      2  F   LIG d   1      -1.364   0.998  -0.145  0.00  0.00    -0.204 F 
ATOM      3  C   LIG d   1       0.325   3.968   2.203  0.00  0.00     0.032 A 
ATOM      4  C   LIG d   1      -0.975   3.500   2.441  0.00  0.00     0.141 A 
ATOM      5  C   LIG d   1       1.023   3.423   1.105  0.00  0.00     0.003 A 
ATOM      6  C   LIG d   1      -1.544   2.491   1.668  0.00  0.00     0.059 A 
ATOM      7  C   LIG d   1       0.452   2.427   0.312  0.00  0.00     0.030 A 
ATOM      8  C   LIG d   1      -0.822   1.962   0.609  0.00  0.00     0.142 A 
ENDROOT
BRANCH   3   9
ATOM      9  C   LIG d   1       0.949   5.077   3.050  0.00  0.00     0.136 C 
ATOM     10  O   LIG d   1       2.341   5.230   2.636  0.00  0.00    -0.353 OA
ATOM     11  C   LIG d   1       3.158   4.524   3.582  0.00  0.00     0.145 C 
ATOM     12  C   LIG d   1       2.529   4.871   4.911  0.00  0.00     0.063 C 
ATOM     13  C   LIG d   1       1.050   4.746   4.567  0.00  0.00     0.039 C 
BRANCH  12  14
ATOM     14  C   LIG d   1       2.960   6.288   5.297  0.00  0.00     0.151 C 
BRANCH  14  15
ATOM     15  O   LIG d   1       4.380   6.432   5.273  0.00  0.00    -0.331 OA
BRANCH  15  16
ATOM     16  C   LIG d   1       4.812   7.654   4.818  0.00  0.00     0.094 A 
ATOM     17  C   LIG d   1       4.873   8.038   3.485  0.00  0.00     0.026 A 
ATOM     18  C   LIG d   1       5.356   9.301   3.124  0.00  0.00     0.019 A 
ATOM     19  C   LIG d   1       5.811  10.237   4.065  0.00  0.00     0.056 A 
ATOM     20  C   LIG d   1       5.690   9.841   5.409  0.00  0.00     0.019 A 
ATOM     21  C   LIG d   1       5.207   8.572   5.783  0.00  0.00     0.026 A 
BRANCH  19  22
ATOM     22  N   LIG d   1       6.288  11.506   3.679  0.00  0.00    -0.345 N 
ATOM     23  C   LIG d   1       7.508  12.009   4.368  0.00  0.00     0.119 C 
ATOM     24  C   LIG d   1       7.784  13.492   4.035  0.00  0.00     0.101 C 
ATOM     25  N   LIG d   1       7.884  13.698   2.572  0.00  0.00    -0.249 NA
ATOM     26  C   LIG d   1       6.637  13.277   1.898  0.00  0.00     0.101 C 
ATOM     27  C   LIG d   1       6.302  11.805   2.217  0.00  0.00     0.119 C 
BRANCH  25  28
ATOM     28  C   LIG d   1       8.277  14.980   2.153  0.00  0.00     0.037 A 
ATOM     29  C   LIG d   1       9.302  15.214   1.237  0.00  0.00     0.013 A 
ATOM     30  C   LIG d   1       9.631  16.514   0.832  0.00  0.00     0.019 A 
ATOM     31  C   LIG d   1       8.943  17.631   1.320  0.00  0.00     0.070 A 
ATOM     32  C   LIG d   1       7.941  17.399   2.273  0.00  0.00     0.019 A 
ATOM     33  C   LIG d   1       7.621  16.096   2.683  0.00  0.00     0.013 A 
BRANCH  31  34
ATOM     34  N   LIG d   1       9.224  18.932   0.837  0.00  0.00    -0.240 N 
ATOM     35  C   LIG d   1       9.508  20.070   1.579  0.00  0.00     0.352 A 
ATOM     36  O   LIG d   1       9.494  20.212   2.794  0.00  0.00    -0.244 OA
ATOM     37  N   LIG d   1       9.809  21.064   0.633  0.00  0.00    -0.200 N 
ATOM     38  N   LIG d   1       9.640  20.569  -0.641  0.00  0.00    -0.144 NA
ATOM     39  C   LIG d   1       9.307  19.332  -0.450  0.00  0.00     0.207 A 
BRANCH  37  40
ATOM     40  C   LIG d   1      10.003  22.498   0.858  0.00  0.00     0.137 C 
BRANCH  40  41
ATOM     41  C   LIG d   1      11.491  22.881   0.736  0.00  0.00     0.027 C 
ATOM     42  C   LIG d   1      12.103  23.324   2.060  0.00  0.00     0.002 C 
ENDBRANCH  40  41
BRANCH  40  43
ATOM     43  C   LIG d   1       9.112  23.421  -0.026  0.00  0.00     0.133 C 
ATOM     44  C   LIG d   1       7.618  23.291   0.255  0.00  0.00     0.034 C 
BRANCH  43  45
ATOM     45  O   LIG d   1       9.380  23.250  -1.417  0.00  0.00    -0.383 OA
ATOM     46  H   LIG d   1       9.834  22.402  -1.550  0.00  0.00     0.210 HD
ENDBRANCH  43  45
ENDBRANCH  40  43
ENDBRANCH  37  40
ENDBRANCH  31  34
ENDBRANCH  25  28
ENDBRANCH  19  22
ENDBRANCH  15  16
ENDBRANCH  14  15
ENDBRANCH  12  14
BRANCH   9  47
ATOM     47  C   LIG d   1       0.204   6.419   2.855  0.00  0.00     0.161 C 
BRANCH  47  48
ATOM     48  N   LIG d   1       0.848   7.333   1.936  0.00  0.00    -0.228 N 
ATOM     49  N   LIG d   1       1.553   8.391   2.380  0.00  0.00    -0.145 NA
ATOM     50  C   LIG d   1       1.971   8.927   1.230  0.00  0.00     0.221 A 
ATOM     51  N   LIG d   1       1.604   8.249   0.102  0.00  0.00    -0.201 NA
ATOM     52  C   LIG d   1       0.908   7.243   0.579  0.00  0.00     0.197 A 
ENDBRANCH  47  48
ENDBRANCH   9  47
ENDBRANCH   3   9
TORSDOF 13
ENDMDL
MODEL 4
REMARK VINA RESULT:      -7.5     20.675     22.094
REMARK  13 active torsions:
REMARK  status: ('A' for Active; 'I' for Inactive)
REMARK    1  A    between atoms: O_4  and  C_21 
REMARK    2  A    between atoms: O_4  and  C_27 
REMARK    3  A    between atoms: O_5  and  C_43 
REMARK    4  A    between atoms: N_7  and  C_19 
REMARK    5  A    between atoms: N_9  and  C_33 
REMARK    6  A    between atoms: N_10  and  C_39 
REMARK    7  A    between atoms: N_12  and  C_40 
REMARK    8  A    between atoms: N_13  and  C_44 
REMARK    9  A    between atoms: C_15  and  C_19 
REMARK   10  A    between atoms: C_15  and  C_20 
REMARK   11  A    between atoms: C_17  and  C_21 
REMARK   12  A    between atoms: C_40  and  C_45 
REMARK   13  A    between atoms: C_40  and  C_43 
ROOT
ATOM      1  F   LIG d   1      22.551   6.060  -4.104  0.00  0.00    -0.204 F 
ATOM      2  F   LIG d   1      19.436   9.366  -2.898  0.00  0.00    -0.204 F 
ATOM      3  C   LIG d   1      20.241   5.512  -4.197  0.00  0.00     0.032 A 
ATOM      4  C   LIG d   1      21.273   6.421  -3.924  0.00  0.00     0.141 A 
ATOM      5  C   LIG d   1      18.915   5.971  -4.055  0.00  0.00     0.003 A 
ATOM      6  C   LIG d   1      21.012   7.712  -3.472  0.00  0.00     0.059 A 
ATOM      7  C   LIG d   1      18.644   7.270  -3.624  0.00  0.00     0.030 A 
ATOM      8  C   LIG d   1      19.697   8.124  -3.324  0.00  0.00     0.142 A 
ENDROOT
BRANCH   3   9
ATOM      9  C   LIG d   1      20.527   4.095  -4.695  0.00  0.00     0.136 C 
ATOM     10  O   LIG d   1      21.056   4.194  -6.053  0.00  0.00    -0.353 OA
ATOM     11  C   LIG d   1      19.979   3.924  -6.963  0.00  0.00     0.145 C 
ATOM     12  C   LIG d   1      19.261   2.763  -6.316  0.00  0.00     0.063 C 
ATOM     13  C   LIG d   1      19.260   3.205  -4.858  0.00  0.00     0.039 C 
BRANCH  12  14
ATOM     14  C   LIG d   1      20.066   1.488  -6.579  0.00  0.00     0.151 C 
BRANCH  14  15
ATOM     15  O   LIG d   1      19.504   0.361  -5.908  0.00  0.00    -0.331 OA
BRANCH  15  16
ATOM     16  C   LIG d   1      18.625  -0.366  -6.673  0.00  0.00     0.094 A 
ATOM     17  C   LIG d   1      17.287  -0.584  -6.369  0.00  0.00     0.026 A 
ATOM     18  C   LIG d   1      16.481  -1.366  -7.205  0.00  0.00     0.019 A 
ATOM     19  C   LIG d   1      16.964  -1.976  -8.372  0.00  0.00     0.056 A 
ATOM     20  C   LIG d   1      18.308  -1.696  -8.681  0.00  0.00     0.019 A 
ATOM     21  C   LIG d   1      19.128  -0.913  -7.847  0.00  0.00     0.026 A 
BRANCH  19  22
ATOM     22  N   LIG d   1      16.131  -2.754  -9.202  0.00  0.00    -0.345 N 
ATOM     23  C   LIG d   1      16.769  -3.407 -10.379  0.00  0.00     0.119 C 
ATOM     24  C   LIG d   1      15.718  -4.022 -11.331  0.00  0.00     0.101 C 
ATOM     25  N   LIG d   1      14.843  -4.975 -10.612  0.00  0.00    -0.249 NA
ATOM     26  C   LIG d   1      14.145  -4.303  -9.494  0.00  0.00     0.101 C 
ATOM     27  C   LIG d   1      15.150  -3.650  -8.523  0.00  0.00     0.119 C 
BRANCH  25  28
ATOM     28  C   LIG d   1      13.943  -5.706 -11.403  0.00  0.00     0.037 A 
ATOM     29  C   LIG d   1      12.620  -5.956 -11.040  0.00  0.00     0.013 A 
ATOM     30  C   LIG d   1      11.757  -6.668 -11.884  0.00  0.00     0.019 A 
ATOM     31  C   LIG d   1      12.180  -7.150 -13.128  0.00  0.00     0.070 A 
ATOM     32  C   LIG d   1      13.522  -6.937 -13.474  0.00  0.00     0.019 A 
ATOM     33  C   LIG d   1      14.385  -6.231 -12.622  0.00  0.00     0.013 A 
BRANCH  31  34
ATOM     34  N   LIG d   1      11.277  -7.790 -14.011  0.00  0.00    -0.240 N 
ATOM     35  C   LIG d   1      10.746  -7.290 -15.191  0.00  0.00     0.352 A 
ATOM     36  O   LIG d   1      10.875  -6.173 -15.673  0.00  0.00    -0.244 OA
ATOM     37  N   LIG d   1       9.993  -8.344 -15.736  0.00  0.00    -0.200 N 
ATOM     38  N   LIG d   1      10.005  -9.423 -14.879  0.00  0.00    -0.144 NA
ATOM     39  C   LIG d   1      10.768  -9.037 -13.907  0.00  0.00     0.207 A 
BRANCH  37  40
ATOM     40  C   LIG d   1       9.078  -8.307 -16.878  0.00  0.00     0.137 C 
BRANCH  40  41
ATOM     41  C   LIG d   1       9.378  -9.453 -17.865  0.00  0.00     0.027 C 
ATOM     42  C   LIG d   1       8.656 -10.748 -17.511  0.00  0.00     0.002 C 
ENDBRANCH  40  41
BRANCH  40  43
ATOM     43  C   LIG d   1       7.568  -8.273 -16.500  0.00  0.00     0.133 C 
ATOM     44  C   LIG d   1       6.856  -6.989 -16.913  0.00  0.00     0.034 C 
BRANCH  43  45
ATOM     45  O   LIG d   1       7.357  -8.543 -15.115  0.00  0.00    -0.383 OA
ATOM     46  H   LIG d   1       8.203  -8.466 -14.644  0.00  0.00     0.210 HD
ENDBRANCH  43  45
ENDBRANCH  40  43
ENDBRANCH  37  40
ENDBRANCH  31  34
ENDBRANCH  25  28
ENDBRANCH  19  22
ENDBRANCH  15  16
ENDBRANCH  14  15
ENDBRANCH  12  14
BRANCH   9  47
ATOM     47  C   LIG d   1      21.558   3.380  -3.792  0.00  0.00     0.161 C 
BRANCH  47  48
ATOM     48  N   LIG d   1      21.086   2.143  -3.206  0.00  0.00    -0.228 N 
ATOM     49  N   LIG d   1      21.767   0.991  -3.362  0.00  0.00    -0.145 NA
ATOM     50  C   LIG d   1      21.006   0.143  -2.662  0.00  0.00     0.221 A 
ATOM     51  N   LIG d   1      19.920   0.702  -2.050  0.00  0.00    -0.201 NA
ATOM     52  C   LIG d   1      20.003   1.965  -2.401  0.00  0.00     0.197 A 
ENDBRANCH  47  48
ENDBRANCH   9  47
ENDBRANCH   3   9
TORSDOF 13
ENDMDL
MODEL 5
REMARK VINA RESULT:      -7.4     20.375     24.098
REMARK  13 active torsions:
REMARK  status: ('A' for Active; 'I' for Inactive)
REMARK    1  A    between atoms: O_4  and  C_21 
REMARK    2  A    between atoms: O_4  and  C_27 
REMARK    3  A    between atoms: O_5  and  C_43 
REMARK    4  A    between atoms: N_7  and  C_19 
REMARK    5  A    between atoms: N_9  and  C_33 
REMARK    6  A    between atoms: N_10  and  C_39 
REMARK    7  A    between atoms: N_12  and  C_40 
REMARK    8  A    between atoms: N_13  and  C_44 
REMARK    9  A    between atoms: C_15  and  C_19 
REMARK   10  A    between atoms: C_15  and  C_20 
REMARK   11  A    between atoms: C_17  and  C_21 
REMARK   12  A    between atoms: C_40  and  C_45 
REMARK   13  A    between atoms: C_40  and  C_43 
ROOT
ATOM      1  F   LIG d   1       8.515   3.631  23.157  0.00  0.00    -0.204 F 
ATOM      2  F   LIG d   1      11.114   7.498  23.768  0.00  0.00    -0.204 F 
ATOM      3  C   LIG d   1      10.880   3.406  23.148  0.00  0.00     0.032 A 
ATOM      4  C   LIG d   1       9.726   4.197  23.244  0.00  0.00     0.141 A 
ATOM      5  C   LIG d   1      12.125   4.047  23.315  0.00  0.00     0.003 A 
ATOM      6  C   LIG d   1       9.795   5.574  23.435  0.00  0.00     0.059 A 
ATOM      7  C   LIG d   1      12.203   5.424  23.530  0.00  0.00     0.030 A 
ATOM      8  C   LIG d   1      11.037   6.175  23.575  0.00  0.00     0.142 A 
ENDROOT
BRANCH   3   9
ATOM      9  C   LIG d   1      10.804   1.893  22.940  0.00  0.00     0.136 C 
ATOM     10  O   LIG d   1       9.551   1.421  23.523  0.00  0.00    -0.353 OA
ATOM     11  C   LIG d   1       9.849   0.878  24.818  0.00  0.00     0.145 C 
ATOM     12  C   LIG d   1      11.128   0.107  24.585  0.00  0.00     0.063 C 
ATOM     13  C   LIG d   1      11.893   1.085  23.703  0.00  0.00     0.039 C 
BRANCH  12  14
ATOM     14  C   LIG d   1      10.779  -1.213  23.894  0.00  0.00     0.151 C 
BRANCH  14  15
ATOM     15  O   LIG d   1      10.807  -2.310  24.806  0.00  0.00    -0.331 OA
BRANCH  15  16
ATOM     16  C   LIG d   1       9.661  -3.066  24.810  0.00  0.00     0.094 A 
ATOM     17  C   LIG d   1       9.274  -3.932  25.825  0.00  0.00     0.026 A 
ATOM     18  C   LIG d   1       8.096  -4.680  25.719  0.00  0.00     0.019 A 
ATOM     19  C   LIG d   1       7.253  -4.614  24.600  0.00  0.00     0.056 A 
ATOM     20  C   LIG d   1       7.642  -3.692  23.611  0.00  0.00     0.019 A 
ATOM     21  C   LIG d   1       8.826  -2.936  23.707  0.00  0.00     0.026 A 
BRANCH  19  22
ATOM     22  N   LIG d   1       6.067  -5.372  24.518  0.00  0.00    -0.345 N 
ATOM     23  C   LIG d   1       5.551  -5.675  23.154  0.00  0.00     0.119 C 
ATOM     24  C   LIG d   1       4.136  -6.294  23.203  0.00  0.00     0.101 C 
ATOM     25  N   LIG d   1       4.115  -7.505  24.053  0.00  0.00    -0.249 NA
ATOM     26  C   LIG d   1       4.548  -7.185  25.431  0.00  0.00     0.101 C 
ATOM     27  C   LIG d   1       5.949  -6.541  25.438  0.00  0.00     0.119 C 
BRANCH  25  28
ATOM     28  C   LIG d   1       2.917  -8.238  24.057  0.00  0.00     0.037 A 
ATOM     29  C   LIG d   1       2.545  -9.108  25.082  0.00  0.00     0.013 A 
ATOM     30  C   LIG d   1       1.323  -9.791  25.047  0.00  0.00     0.019 A 
ATOM     31  C   LIG d   1       0.419  -9.625  23.992  0.00  0.00     0.070 A 
ATOM     32  C   LIG d   1       0.811  -8.784  22.940  0.00  0.00     0.019 A 
ATOM     33  C   LIG d   1       2.040  -8.109  22.975  0.00  0.00     0.013 A 
BRANCH  31  34
ATOM     34  N   LIG d   1      -0.851 -10.251  24.009  0.00  0.00    -0.240 N 
ATOM     35  C   LIG d   1      -1.982  -9.856  24.709  0.00  0.00     0.352 A 
ATOM     36  O   LIG d   1      -2.101  -8.944  25.515  0.00  0.00    -0.244 OA
ATOM     37  N   LIG d   1      -2.995 -10.744  24.310  0.00  0.00    -0.200 N 
ATOM     38  N   LIG d   1      -2.478 -11.694  23.455  0.00  0.00    -0.144 NA
ATOM     39  C   LIG d   1      -1.238 -11.346  23.321  0.00  0.00     0.207 A 
BRANCH  37  40
ATOM     40  C   LIG d   1      -4.339 -10.896  24.872  0.00  0.00     0.137 C 
BRANCH  40  41
ATOM     41  C   LIG d   1      -5.355 -11.277  23.777  0.00  0.00     0.027 C 
ATOM     42  C   LIG d   1      -6.411 -10.203  23.544  0.00  0.00     0.002 C 
ENDBRANCH  40  41
BRANCH  40  43
ATOM     43  C   LIG d   1      -4.430 -11.867  26.085  0.00  0.00     0.133 C 
ATOM     44  C   LIG d   1      -4.251 -11.185  27.438  0.00  0.00     0.034 C 
BRANCH  43  45
ATOM     45  O   LIG d   1      -3.535 -12.972  25.956  0.00  0.00    -0.383 OA
ATOM     46  H   LIG d   1      -3.504 -13.247  25.025  0.00  0.00     0.210 HD
ENDBRANCH  43  45
ENDBRANCH  40  43
ENDBRANCH  37  40
ENDBRANCH  31  34
ENDBRANCH  25  28
ENDBRANCH  19  22
ENDBRANCH  15  16
ENDBRANCH  14  15
ENDBRANCH  12  14
BRANCH   9  47
ATOM     47  C   LIG d   1      10.840   1.531  21.436  0.00  0.00     0.161 C 
BRANCH  47  48
ATOM     48  N   LIG d   1       9.585   1.043  20.907  0.00  0.00    -0.228 N 
ATOM     49  N   LIG d   1       8.619   1.891  20.505  0.00  0.00    -0.145 NA
ATOM     50  C   LIG d   1       7.680   1.037  20.085  0.00  0.00     0.221 A 
ATOM     51  N   LIG d   1       8.017  -0.284  20.164  0.00  0.00    -0.201 NA
ATOM     52  C   LIG d   1       9.227  -0.249  20.674  0.00  0.00     0.197 A 
ENDBRANCH  47  48
ENDBRANCH   9  47
ENDBRANCH   3   9
TORSDOF 13
ENDMDL
MODEL 6
REMARK VINA RESULT:      -7.1     24.434     30.083
REMARK  13 active torsions:
REMARK  status: ('A' for Active; 'I' for Inactive)
REMARK    1  A    between atoms: O_4  and  C_21 
REMARK    2  A    between atoms: O_4  and  C_27 
REMARK    3  A    between atoms: O_5  and  C_43 
REMARK    4  A    between atoms: N_7  and  C_19 
REMARK    5  A    between atoms: N_9  and  C_33 
REMARK    6  A    between atoms: N_10  and  C_39 
REMARK    7  A    between atoms: N_12  and  C_40 
REMARK    8  A    between atoms: N_13  and  C_44 
REMARK    9  A    between atoms: C_15  and  C_19 
REMARK   10  A    between atoms: C_15  and  C_20 
REMARK   11  A    between atoms: C_17  and  C_21 
REMARK   12  A    between atoms: C_40  and  C_45 
REMARK   13  A    between atoms: C_40  and  C_43 
ROOT
ATOM      1  F   LIG d   1      26.767  -2.349  27.305  0.00  0.00    -0.204 F 
ATOM      2  F   LIG d   1      27.432  -6.967  26.736  0.00  0.00    -0.204 F 
ATOM      3  C   LIG d   1      25.498  -3.469  25.636  0.00  0.00     0.032 A 
ATOM      4  C   LIG d   1      26.465  -3.480  26.651  0.00  0.00     0.141 A 
ATOM      5  C   LIG d   1      25.174  -4.701  25.032  0.00  0.00     0.003 A 
ATOM      6  C   LIG d   1      27.132  -4.647  27.016  0.00  0.00     0.059 A 
ATOM      7  C   LIG d   1      25.821  -5.879  25.406  0.00  0.00     0.030 A 
ATOM      8  C   LIG d   1      26.803  -5.838  26.386  0.00  0.00     0.142 A 
ENDROOT
BRANCH   3   9
ATOM      9  C   LIG d   1      24.765  -2.188  25.237  0.00  0.00     0.136 C 
ATOM     10  O   LIG d   1      25.738  -1.281  24.634  0.00  0.00    -0.353 OA
ATOM     11  C   LIG d   1      26.129  -0.331  25.638  0.00  0.00     0.145 C 
ATOM     12  C   LIG d   1      24.826   0.008  26.321  0.00  0.00     0.063 C 
ATOM     13  C   LIG d   1      24.196  -1.374  26.436  0.00  0.00     0.039 C 
BRANCH  12  14
ATOM     14  C   LIG d   1      24.047   0.975  25.428  0.00  0.00     0.151 C 
BRANCH  14  15
ATOM     15  O   LIG d   1      24.423   2.332  25.664  0.00  0.00    -0.331 OA
BRANCH  15  16
ATOM     16  C   LIG d   1      24.288   3.150  24.569  0.00  0.00     0.094 A 
ATOM     17  C   LIG d   1      24.996   3.025  23.381  0.00  0.00     0.026 A 
ATOM     18  C   LIG d   1      24.803   3.930  22.332  0.00  0.00     0.019 A 
ATOM     19  C   LIG d   1      23.908   5.008  22.415  0.00  0.00     0.056 A 
ATOM     20  C   LIG d   1      23.168   5.080  23.609  0.00  0.00     0.019 A 
ATOM     21  C   LIG d   1      23.356   4.176  24.671  0.00  0.00     0.026 A 
BRANCH  19  22
ATOM     22  N   LIG d   1      23.724   5.905  21.343  0.00  0.00    -0.345 N 
ATOM     23  C   LIG d   1      22.475   6.714  21.344  0.00  0.00     0.119 C 
ATOM     24  C   LIG d   1      22.280   7.469  20.010  0.00  0.00     0.101 C 
ATOM     25  N   LIG d   1      23.455   8.317  19.704  0.00  0.00    -0.249 NA
ATOM     26  C   LIG d   1      24.683   7.497  19.618  0.00  0.00     0.101 C 
ATOM     27  C   LIG d   1      24.913   6.702  20.920  0.00  0.00     0.119 C 
BRANCH  25  28
ATOM     28  C   LIG d   1      23.334   9.163  18.589  0.00  0.00     0.037 A 
ATOM     29  C   LIG d   1      24.364   9.975  18.118  0.00  0.00     0.013 A 
ATOM     30  C   LIG d   1      24.196  10.777  16.982  0.00  0.00     0.019 A 
ATOM     31  C   LIG d   1      22.993  10.793  16.267  0.00  0.00     0.070 A 
ATOM     32  C   LIG d   1      21.943  10.010  16.765  0.00  0.00     0.019 A 
ATOM     33  C   LIG d   1      22.113   9.214  17.908  0.00  0.00     0.013 A 
BRANCH  31  34
ATOM     34  N   LIG d   1      22.863  11.539  15.070  0.00  0.00    -0.240 N 
ATOM     35  C   LIG d   1      23.336  11.209  13.809  0.00  0.00     0.352 A 
ATOM     36  O   LIG d   1      24.031  10.258  13.479  0.00  0.00    -0.244 OA
ATOM     37  N   LIG d   1      22.859  12.220  12.957  0.00  0.00    -0.200 N 
ATOM     38  N   LIG d   1      22.184  13.173  13.689  0.00  0.00    -0.144 NA
ATOM     39  C   LIG d   1      22.219  12.714  14.899  0.00  0.00     0.207 A 
BRANCH  37  40
ATOM     40  C   LIG d   1      23.210  12.464  11.557  0.00  0.00     0.137 C 
BRANCH  40  41
ATOM     41  C   LIG d   1      24.692  12.868  11.420  0.00  0.00     0.027 C 
ATOM     42  C   LIG d   1      24.881  14.354  11.139  0.00  0.00     0.002 C 
ENDBRANCH  40  41
BRANCH  40  43
ATOM     43  C   LIG d   1      22.854  11.300  10.585  0.00  0.00     0.133 C 
ATOM     44  C   LIG d   1      23.056  11.641   9.112  0.00  0.00     0.034 C 
BRANCH  43  45
ATOM     45  O   LIG d   1      21.537  10.799  10.811  0.00  0.00    -0.383 OA
ATOM     46  H   LIG d   1      21.042  11.440  11.346  0.00  0.00     0.210 HD
ENDBRANCH  43  45
ENDBRANCH  40  43
ENDBRANCH  37  40
ENDBRANCH  31  34
ENDBRANCH  25  28
ENDBRANCH  19  22
ENDBRANCH  15  16
ENDBRANCH  14  15
ENDBRANCH  12  14
BRANCH   9  47
ATOM     47  C   LIG d   1      23.636  -2.481  24.220  0.00  0.00     0.161 C 
BRANCH  47  48
ATOM     48  N   LIG d   1      23.952  -2.121  22.855  0.00  0.00    -0.228 N 
ATOM     49  N   LIG d   1      24.720  -2.913  22.082  0.00  0.00    -0.145 NA
ATOM     50  C   LIG d   1      24.732  -2.226  20.936  0.00  0.00     0.221 A 
ATOM     51  N   LIG d   1      23.990  -1.079  20.935  0.00  0.00    -0.201 NA
ATOM     52  C   LIG d   1      23.501  -1.045  22.153  0.00  0.00     0.197 A 
ENDBRANCH  47  48
ENDBRANCH   9  47
ENDBRANCH   3   9
TORSDOF 13
ENDMDL
MODEL 7
REMARK VINA RESULT:      -7.1     19.939     24.617
REMARK  13 active torsions:
REMARK  status: ('A' for Active; 'I' for Inactive)
REMARK    1  A    between atoms: O_4  and  C_21 
REMARK    2  A    between atoms: O_4  and  C_27 
REMARK    3  A    between atoms: O_5  and  C_43 
REMARK    4  A    between atoms: N_7  and  C_19 
REMARK    5  A    between atoms: N_9  and  C_33 
REMARK    6  A    between atoms: N_10  and  C_39 
REMARK    7  A    between atoms: N_12  and  C_40 
REMARK    8  A    between atoms: N_13  and  C_44 
REMARK    9  A    between atoms: C_15  and  C_19 
REMARK   10  A    between atoms: C_15  and  C_20 
REMARK   11  A    between atoms: C_17  and  C_21 
REMARK   12  A    between atoms: C_40  and  C_45 
REMARK   13  A    between atoms: C_40  and  C_43 
ROOT
ATOM      1  F   LIG d   1      25.749   7.041  19.730  0.00  0.00    -0.204 F 
ATOM      2  F   LIG d   1      24.344   3.956  22.985  0.00  0.00    -0.204 F 
ATOM      3  C   LIG d   1      23.648   7.397  20.780  0.00  0.00     0.032 A 
ATOM      4  C   LIG d   1      24.817   6.643  20.607  0.00  0.00     0.141 A 
ATOM      5  C   LIG d   1      22.735   6.966  21.765  0.00  0.00     0.003 A 
ATOM      6  C   LIG d   1      25.052   5.477  21.331  0.00  0.00     0.059 A 
ATOM      7  C   LIG d   1      22.973   5.811  22.511  0.00  0.00     0.030 A 
ATOM      8  C   LIG d   1      24.124   5.071  22.277  0.00  0.00     0.142 A 
ENDROOT
BRANCH   3   9
ATOM      9  C   LIG d   1      23.391   8.678  19.986  0.00  0.00     0.136 C 
ATOM     10  O   LIG d   1      21.953   8.938  20.005  0.00  0.00    -0.353 OA
ATOM     11  C   LIG d   1      21.410   8.471  18.761  0.00  0.00     0.145 C 
ATOM     12  C   LIG d   1      22.433   8.920  17.744  0.00  0.00     0.063 C 
ATOM     13  C   LIG d   1      23.726   8.572  18.470  0.00  0.00     0.039 C 
BRANCH  12  14
ATOM     14  C   LIG d   1      22.243  10.417  17.493  0.00  0.00     0.151 C 
BRANCH  14  15
ATOM     15  O   LIG d   1      23.415  11.012  16.935  0.00  0.00    -0.331 OA
BRANCH  15  16
ATOM     16  C   LIG d   1      23.474  10.957  15.565  0.00  0.00     0.094 A 
ATOM     17  C   LIG d   1      24.615  10.680  14.821  0.00  0.00     0.026 A 
ATOM     18  C   LIG d   1      24.575  10.675  13.422  0.00  0.00     0.019 A 
ATOM     19  C   LIG d   1      23.408  10.954  12.695  0.00  0.00     0.056 A 
ATOM     20  C   LIG d   1      22.258  11.180  13.474  0.00  0.00     0.019 A 
ATOM     21  C   LIG d   1      22.287  11.189  14.881  0.00  0.00     0.026 A 
BRANCH  19  22
ATOM     22  N   LIG d   1      23.389  10.936  11.286  0.00  0.00    -0.345 N 
ATOM     23  C   LIG d   1      22.480  11.901  10.609  0.00  0.00     0.119 C 
ATOM     24  C   LIG d   1      22.372  11.620   9.093  0.00  0.00     0.101 C 
ATOM     25  N   LIG d   1      23.708  11.622   8.457  0.00  0.00    -0.249 NA
ATOM     26  C   LIG d   1      24.584  10.602   9.074  0.00  0.00     0.101 C 
ATOM     27  C   LIG d   1      24.707  10.824  10.596  0.00  0.00     0.119 C 
BRANCH  25  28
ATOM     28  C   LIG d   1      23.726  11.521   7.056  0.00  0.00     0.037 A 
ATOM     29  C   LIG d   1      23.372  12.564   6.200  0.00  0.00     0.013 A 
ATOM     30  C   LIG d   1      23.438  12.416   4.809  0.00  0.00     0.019 A 
ATOM     31  C   LIG d   1      23.869  11.223   4.217  0.00  0.00     0.070 A 
ATOM     32  C   LIG d   1      24.184  10.161   5.076  0.00  0.00     0.019 A 
ATOM     33  C   LIG d   1      24.108  10.310   6.469  0.00  0.00     0.013 A 
BRANCH  31  34
ATOM     34  N   LIG d   1      24.017  11.114   2.813  0.00  0.00    -0.240 N 
ATOM     35  C   LIG d   1      23.248  10.365   1.934  0.00  0.00     0.352 A 
ATOM     36  O   LIG d   1      22.342   9.584   2.188  0.00  0.00    -0.244 OA
ATOM     37  N   LIG d   1      23.736  10.678   0.654  0.00  0.00    -0.200 N 
ATOM     38  N   LIG d   1      24.815  11.529   0.757  0.00  0.00    -0.144 NA
ATOM     39  C   LIG d   1      24.919  11.744   2.029  0.00  0.00     0.207 A 
BRANCH  37  40
ATOM     40  C   LIG d   1      23.408  10.037  -0.621  0.00  0.00     0.137 C 
BRANCH  40  41
ATOM     41  C   LIG d   1      22.170  10.691  -1.266  0.00  0.00     0.027 C 
ATOM     42  C   LIG d   1      20.942   9.789  -1.248  0.00  0.00     0.002 C 
ENDBRANCH  40  41
BRANCH  40  43
ATOM     43  C   LIG d   1      24.591   9.957  -1.631  0.00  0.00     0.133 C 
ATOM     44  C   LIG d   1      24.242   9.251  -2.937  0.00  0.00     0.034 C 
BRANCH  43  45
ATOM     45  O   LIG d   1      25.758   9.383  -1.044  0.00  0.00    -0.383 OA
ATOM     46  H   LIG d   1      25.677   8.415  -1.059  0.00  0.00     0.210 HD
ENDBRANCH  43  45
ENDBRANCH  40  43
ENDBRANCH  37  40
ENDBRANCH  31  34
ENDBRANCH  25  28
ENDBRANCH  19  22
ENDBRANCH  15  16
ENDBRANCH  14  15
ENDBRANCH  12  14
BRANCH   9  47
ATOM     47  C   LIG d   1      24.139   9.882  20.607  0.00  0.00     0.161 C 
BRANCH  47  48
ATOM     48  N   LIG d   1      23.288  10.818  21.310  0.00  0.00    -0.228 N 
ATOM     49  N   LIG d   1      23.013  10.666  22.619  0.00  0.00    -0.145 NA
ATOM     50  C   LIG d   1      22.237  11.730  22.848  0.00  0.00     0.221 A 
ATOM     51  N   LIG d   1      22.046  12.553  21.776  0.00  0.00    -0.201 NA
ATOM     52  C   LIG d   1      22.729  11.960  20.824  0.00  0.00     0.197 A 
ENDBRANCH  47  48
ENDBRANCH   9  47
ENDBRANCH   3   9
TORSDOF 13
ENDMDL
MODEL 8
REMARK VINA RESULT:      -7.0     22.874     25.238
REMARK  13 active torsions:
REMARK  status: ('A' for Active; 'I' for Inactive)
REMARK    1  A    between atoms: O_4  and  C_21 
REMARK    2  A    between atoms: O_4  and  C_27 
REMARK    3  A    between atoms: O_5  and  C_43 
REMARK    4  A    between atoms: N_7  and  C_19 
REMARK    5  A    between atoms: N_9  and  C_33 
REMARK    6  A    between atoms: N_10  and  C_39 
REMARK    7  A    between atoms: N_12  and  C_40 
REMARK    8  A    between atoms: N_13  and  C_44 
REMARK    9  A    between atoms: C_15  and  C_19 
REMARK   10  A    between atoms: C_15  and  C_20 
REMARK   11  A    between atoms: C_17  and  C_21 
REMARK   12  A    between atoms: C_40  and  C_45 
REMARK   13  A    between atoms: C_40  and  C_43 
ROOT
ATOM      1  F   LIG d   1      10.754   4.251 -17.939  0.00  0.00    -0.204 F 
ATOM      2  F   LIG d   1       6.632   6.181 -19.107  0.00  0.00    -0.204 F 
ATOM      3  C   LIG d   1       9.543   3.300 -19.748  0.00  0.00     0.032 A 
ATOM      4  C   LIG d   1       9.667   4.248 -18.723  0.00  0.00     0.141 A 
ATOM      5  C   LIG d   1       8.411   3.390 -20.584  0.00  0.00     0.003 A 
ATOM      6  C   LIG d   1       8.687   5.209 -18.490  0.00  0.00     0.059 A 
ATOM      7  C   LIG d   1       7.434   4.363 -20.372  0.00  0.00     0.030 A 
ATOM      8  C   LIG d   1       7.576   5.256 -19.318  0.00  0.00     0.142 A 
ENDROOT
BRANCH   3   9
ATOM      9  C   LIG d   1      10.621   2.246 -20.006  0.00  0.00     0.136 C 
ATOM     10  O   LIG d   1      10.357   1.643 -21.310  0.00  0.00    -0.353 OA
ATOM     11  C   LIG d   1       9.682   0.396 -21.085  0.00  0.00     0.145 C 
ATOM     12  C   LIG d   1      10.424  -0.194 -19.909  0.00  0.00     0.063 C 
ATOM     13  C   LIG d   1      10.583   1.037 -19.026  0.00  0.00     0.039 C 
BRANCH  12  14
ATOM     14  C   LIG d   1      11.748  -0.774 -20.412  0.00  0.00     0.151 C 
BRANCH  14  15
ATOM     15  O   LIG d   1      12.051  -2.019 -19.784  0.00  0.00    -0.331 OA
BRANCH  15  16
ATOM     16  C   LIG d   1      12.591  -1.898 -18.528  0.00  0.00     0.094 A 
ATOM     17  C   LIG d   1      13.755  -1.205 -18.219  0.00  0.00     0.026 A 
ATOM     18  C   LIG d   1      14.237  -1.164 -16.906  0.00  0.00     0.019 A 
ATOM     19  C   LIG d   1      13.597  -1.815 -15.841  0.00  0.00     0.056 A 
ATOM     20  C   LIG d   1      12.394  -2.465 -16.174  0.00  0.00     0.019 A 
ATOM     21  C   LIG d   1      11.901  -2.514 -17.491  0.00  0.00     0.026 A 
BRANCH  19  22
ATOM     22  N   LIG d   1      14.097  -1.754 -14.525  0.00  0.00    -0.345 N 
ATOM     23  C   LIG d   1      13.143  -2.058 -13.423  0.00  0.00     0.119 C 
ATOM     24  C   LIG d   1      13.741  -1.724 -12.038  0.00  0.00     0.101 C 
ATOM     25  N   LIG d   1      15.025  -2.432 -11.831  0.00  0.00    -0.249 NA
ATOM     26  C   LIG d   1      16.001  -2.063 -12.879  0.00  0.00     0.101 C 
ATOM     27  C   LIG d   1      15.442  -2.355 -14.287  0.00  0.00     0.119 C 
BRANCH  25  28
ATOM     28  C   LIG d   1      15.593  -2.322 -10.551  0.00  0.00     0.037 A 
ATOM     29  C   LIG d   1      14.863  -2.435  -9.368  0.00  0.00     0.013 A 
ATOM     30  C   LIG d   1      15.488  -2.347  -8.117  0.00  0.00     0.019 A 
ATOM     31  C   LIG d   1      16.869  -2.150  -7.999  0.00  0.00     0.070 A 
ATOM     32  C   LIG d   1      17.596  -1.993  -9.187  0.00  0.00     0.019 A 
ATOM     33  C   LIG d   1      16.965  -2.073 -10.438  0.00  0.00     0.013 A 
BRANCH  31  34
ATOM     34  N   LIG d   1      17.503  -2.151  -6.733  0.00  0.00    -0.240 N 
ATOM     35  C   LIG d   1      17.643  -3.215  -5.855  0.00  0.00     0.352 A 
ATOM     36  O   LIG d   1      17.181  -4.344  -5.945  0.00  0.00    -0.244 OA
ATOM     37  N   LIG d   1      18.430  -2.724  -4.799  0.00  0.00    -0.200 N 
ATOM     38  N   LIG d   1      18.696  -1.386  -4.993  0.00  0.00    -0.144 NA
ATOM     39  C   LIG d   1      18.136  -1.122  -6.130  0.00  0.00     0.207 A 
BRANCH  37  40
ATOM     40  C   LIG d   1      18.731  -3.369  -3.519  0.00  0.00     0.137 C 
BRANCH  40  41
ATOM     41  C   LIG d   1      17.479  -4.055  -2.937  0.00  0.00     0.027 C 
ATOM     42  C   LIG d   1      16.595  -3.105  -2.139  0.00  0.00     0.002 C 
ENDBRANCH  40  41
BRANCH  40  43
ATOM     43  C   LIG d   1      19.942  -4.347  -3.553  0.00  0.00     0.133 C 
ATOM     44  C   LIG d   1      19.554  -5.805  -3.778  0.00  0.00     0.034 C 
BRANCH  43  45
ATOM     45  O   LIG d   1      20.767  -4.218  -2.396  0.00  0.00    -0.383 OA
ATOM     46  H   LIG d   1      21.265  -3.385  -2.452  0.00  0.00     0.210 HD
ENDBRANCH  43  45
ENDBRANCH  40  43
ENDBRANCH  37  40
ENDBRANCH  31  34
ENDBRANCH  25  28
ENDBRANCH  19  22
ENDBRANCH  15  16
ENDBRANCH  14  15
ENDBRANCH  12  14
BRANCH   9  47
ATOM     47  C   LIG d   1      12.033   2.877 -20.007  0.00  0.00     0.161 C 
BRANCH  47  48
ATOM     48  N   LIG d   1      12.417   3.486 -21.262  0.00  0.00    -0.228 N 
ATOM     49  N   LIG d   1      11.906   4.670 -21.650  0.00  0.00    -0.145 NA
ATOM     50  C   LIG d   1      12.531   4.854 -22.817  0.00  0.00     0.221 A 
ATOM     51  N   LIG d   1      13.426   3.880 -23.160  0.00  0.00    -0.201 NA
ATOM     52  C   LIG d   1      13.341   3.038 -22.156  0.00  0.00     0.197 A 
ENDBRANCH  47  48
ENDBRANCH   9  47
ENDBRANCH   3   9
TORSDOF 13
ENDMDL
MODEL 9
REMARK VINA RESULT:      -6.9     26.218     28.291
REMARK  13 active torsions:
REMARK  status: ('A' for Active; 'I' for Inactive)
REMARK    1  A    between atoms: O_4  and  C_21 
REMARK    2  A    between atoms: O_4  and  C_27 
REMARK    3  A    between atoms: O_5  and  C_43 
REMARK    4  A    between atoms: N_7  and  C_19 
REMARK    5  A    between atoms: N_9  and  C_33 
REMARK    6  A    between atoms: N_10  and  C_39 
REMARK    7  A    between atoms: N_12  and  C_40 
REMARK    8  A    between atoms: N_13  and  C_44 
REMARK    9  A    between atoms: C_15  and  C_19 
REMARK   10  A    between atoms: C_15  and  C_20 
REMARK   11  A    between atoms: C_17  and  C_21 
REMARK   12  A    between atoms: C_40  and  C_45 
REMARK   13  A    between atoms: C_40  and  C_43 
ROOT
ATOM      1  F   LIG d   1      10.794  -3.211 -12.649  0.00  0.00    -0.204 F 
ATOM      2  F   LIG d   1      13.609   0.534 -13.023  0.00  0.00    -0.204 F 
ATOM      3  C   LIG d   1      13.062  -3.568 -13.261  0.00  0.00     0.032 A 
ATOM      4  C   LIG d   1      12.007  -2.709 -12.925  0.00  0.00     0.141 A 
ATOM      5  C   LIG d   1      14.331  -2.989 -13.473  0.00  0.00     0.003 A 
ATOM      6  C   LIG d   1      12.176  -1.329 -12.858  0.00  0.00     0.059 A 
ATOM      7  C   LIG d   1      14.516  -1.608 -13.386  0.00  0.00     0.030 A 
ATOM      8  C   LIG d   1      13.433  -0.791 -13.092  0.00  0.00     0.142 A 
ENDROOT
BRANCH   3   9
ATOM      9  C   LIG d   1      12.876  -5.084 -13.332  0.00  0.00     0.136 C 
ATOM     10  O   LIG d   1      14.149  -5.675 -13.736  0.00  0.00    -0.353 OA
ATOM     11  C   LIG d   1      14.076  -5.949 -15.144  0.00  0.00     0.145 C 
ATOM     12  C   LIG d   1      12.683  -6.508 -15.316  0.00  0.00     0.063 C 
ATOM     13  C   LIG d   1      11.884  -5.558 -14.433  0.00  0.00     0.039 C 
BRANCH  12  14
ATOM     14  C   LIG d   1      12.679  -7.960 -14.832  0.00  0.00     0.151 C 
BRANCH  14  15
ATOM     15  O   LIG d   1      13.879  -8.641 -15.197  0.00  0.00    -0.331 OA
BRANCH  15  16
ATOM     16  C   LIG d   1      14.271  -9.604 -14.301  0.00  0.00     0.094 A 
ATOM     17  C   LIG d   1      13.503 -10.692 -13.905  0.00  0.00     0.026 A 
ATOM     18  C   LIG d   1      13.988 -11.606 -12.962  0.00  0.00     0.019 A 
ATOM     19  C   LIG d   1      15.248 -11.479 -12.360  0.00  0.00     0.056 A 
ATOM     20  C   LIG d   1      16.024 -10.398 -12.818  0.00  0.00     0.019 A 
ATOM     21  C   LIG d   1      15.546  -9.472 -13.764  0.00  0.00     0.026 A 
BRANCH  19  22
ATOM     22  N   LIG d   1      15.719 -12.415 -11.417  0.00  0.00    -0.345 N 
ATOM     23  C   LIG d   1      17.044 -12.143 -10.796  0.00  0.00     0.119 C 
ATOM     24  C   LIG d   1      17.550 -13.350  -9.974  0.00  0.00     0.101 C 
ATOM     25  N   LIG d   1      16.560 -13.744  -8.947  0.00  0.00    -0.249 NA
ATOM     26  C   LIG d   1      15.267 -14.096  -9.573  0.00  0.00     0.101 C 
ATOM     27  C   LIG d   1      14.728 -12.931 -10.427  0.00  0.00     0.119 C 
BRANCH  25  28
ATOM     28  C   LIG d   1      16.969 -14.737  -8.041  0.00  0.00     0.037 A 
ATOM     29  C   LIG d   1      17.927 -14.532  -7.049  0.00  0.00     0.013 A 
ATOM     30  C   LIG d   1      18.274 -15.551  -6.153  0.00  0.00     0.019 A 
ATOM     31  C   LIG d   1      17.673 -16.814  -6.208  0.00  0.00     0.070 A 
ATOM     32  C   LIG d   1      16.742 -17.034  -7.233  0.00  0.00     0.019 A 
ATOM     33  C   LIG d   1      16.403 -16.013  -8.134  0.00  0.00     0.013 A 
BRANCH  31  34
ATOM     34  N   LIG d   1      17.966 -17.808  -5.244  0.00  0.00    -0.240 N 
ATOM     35  C   LIG d   1      17.579 -17.839  -3.912  0.00  0.00     0.352 A 
ATOM     36  O   LIG d   1      16.981 -16.986  -3.271  0.00  0.00    -0.244 OA
ATOM     37  N   LIG d   1      18.035 -19.075  -3.422  0.00  0.00    -0.200 N 
ATOM     38  N   LIG d   1      18.741 -19.739  -4.401  0.00  0.00    -0.144 NA
ATOM     39  C   LIG d   1      18.657 -18.954  -5.428  0.00  0.00     0.207 A 
BRANCH  37  40
ATOM     40  C   LIG d   1      18.056 -19.547  -2.036  0.00  0.00     0.137 C 
BRANCH  40  41
ATOM     41  C   LIG d   1      17.262 -20.860  -1.886  0.00  0.00     0.027 C 
ATOM     42  C   LIG d   1      15.803 -20.725  -2.303  0.00  0.00     0.002 C 
ENDBRANCH  40  41
BRANCH  40  43
ATOM     43  C   LIG d   1      19.478 -19.677  -1.415  0.00  0.00     0.133 C 
ATOM     44  C   LIG d   1      20.242 -18.359  -1.339  0.00  0.00     0.034 C 
BRANCH  43  45
ATOM     45  O   LIG d   1      20.259 -20.675  -2.072  0.00  0.00    -0.383 OA
ATOM     46  H   LIG d   1      21.124 -20.738  -1.634  0.00  0.00     0.210 HD
ENDBRANCH  43  45
ENDBRANCH  40  43
ENDBRANCH  37  40
ENDBRANCH  31  34
ENDBRANCH  25  28
ENDBRANCH  19  22
ENDBRANCH  15  16
ENDBRANCH  14  15
ENDBRANCH  12  14
BRANCH   9  47
ATOM     47  C   LIG d   1      12.453  -5.662 -11.961  0.00  0.00     0.161 C 
BRANCH  47  48
ATOM     48  N   LIG d   1      13.265  -5.220 -10.848  0.00  0.00    -0.228 N 
ATOM     49  N   LIG d   1      14.593  -5.445 -10.818  0.00  0.00    -0.145 NA
ATOM     50  C   LIG d   1      14.929  -4.869  -9.660  0.00  0.00     0.221 A 
ATOM     51  N   LIG d   1      13.903  -4.266  -8.988  0.00  0.00    -0.201 NA
ATOM     52  C   LIG d   1      12.870  -4.493  -9.767  0.00  0.00     0.197 A 
ENDBRANCH  47  48
ENDBRANCH   9  47
ENDBRANCH   3   9
TORSDOF 13
ENDMDL
