REMARK  2 active torsions:
REMARK  status: ('A' for Active; 'I' for Inactive)
REMARK    1  A    between atoms: O_1  and  C_9 
REMARK    2  A    between atoms: N_3  and  C_4 
REMARK       I    between atoms: N_3  and  C_10 
ROOT
ATOM      1  C   LIG d   1       3.820  22.513  -7.263  0.00  0.00     0.034 A 
ATOM      2  C   LIG d   1       2.752  21.650  -7.005  0.00  0.00     0.032 A 
ATOM      3  C   LIG d   1       4.694  22.213  -8.316  0.00  0.00     0.032 A 
ATOM      4  C   LIG d   1       2.557  20.505  -7.787  0.00  0.00     0.039 A 
ATOM      5  C   LIG d   1       4.501  21.071  -9.099  0.00  0.00     0.039 A 
ATOM      6  C   LIG d   1       3.435  20.226  -8.828  0.00  0.00     0.065 A 
ENDROOT
BRANCH   1   7
ATOM      7  N   LIG d   1       4.082  23.685  -6.524  0.00  0.00    -0.328 N 
ATOM      8  C   LIG d   1       5.061  24.632  -6.765  0.00  0.00     0.218 C 
ATOM      9  O   LIG d   1       5.885  24.634  -7.672  0.00  0.00    -0.274 OA
ATOM     10  C   LIG d   1       5.028  25.743  -5.745  0.00  0.00     0.117 C 
ATOM     11  H   LIG d   1       3.483  23.847  -5.725  0.00  0.00     0.169 HD
ENDBRANCH   1   7
BRANCH   6  12
ATOM     12  O   LIG d   1       3.281  19.123  -9.614  0.00  0.00    -0.361 OA
ATOM     13  H   LIG d   1       4.081  19.018 -10.156  0.00  0.00     0.217 HD
ENDBRANCH   6  12
TORSDOF 2
