MODEL 1
REMARK VINA RESULT:      -5.7      0.000      0.000
REMARK  11 active torsions:
REMARK  status: ('A' for Active; 'I' for Inactive)
REMARK    1  A    between atoms: O_1  and  C_16 
REMARK    2  A    between atoms: O_1  and  C_23 
REMARK    3  A    between atoms: O_2  and  C_20 
REMARK    4  A    between atoms: N_8  and  C_22 
REMARK    5  A    between atoms: N_8  and  C_26 
REMARK    6  A    between atoms: N_9  and  C_24 
REMARK    7  A    between atoms: C_10  and  C_13 
REMARK    8  A    between atoms: C_11  and  C_16 
REMARK    9  A    between atoms: C_12  and  C_20 
REMARK   10  A    between atoms: C_22  and  C_23 
REMARK   11  A    between atoms: C_26  and  C_28 
ROOT
ATOM      1  N   LIG d   1      19.742  -2.179  -6.493  0.00  0.00    -0.362 N 
ATOM      2  C   LIG d   1      17.223  -3.245  -7.201  0.00  0.00     0.101 C 
ATOM      3  C   LIG d   1      18.532  -4.028  -7.338  0.00  0.00     0.052 C 
ATOM      4  C   LIG d   1      17.390  -1.917  -6.479  0.00  0.00     0.052 C 
ATOM      5  C   LIG d   1      19.716  -3.478  -6.981  0.00  0.00     0.018 C 
ATOM      6  C   LIG d   1      18.615  -1.432  -6.182  0.00  0.00     0.018 C 
ATOM      7  C   LIG d   1      21.044  -4.187  -7.022  0.00  0.00     0.069 C 
ATOM      8  C   LIG d   1      18.854  -0.119  -5.477  0.00  0.00     0.069 C 
ATOM      9  H   LIG d   1      20.638  -1.816  -6.169  0.00  0.00     0.165 HD
ENDROOT
BRANCH   3  10
ATOM     10  C   LIG d   1      18.357  -5.388  -7.890  0.00  0.00     0.292 C 
ATOM     11  O   LIG d   1      18.540  -5.679  -9.064  0.00  0.00    -0.259 OA
BRANCH  10  12
ATOM     12  O   LIG d   1      18.189  -6.308  -6.902  0.00  0.00    -0.316 OA
BRANCH  12  13
ATOM     13  C   LIG d   1      16.983  -7.081  -7.018  0.00  0.00     0.206 C 
BRANCH  13  14
ATOM     14  C   LIG d   1      16.237  -7.080  -5.678  0.00  0.00     0.261 C 
BRANCH  14  15
ATOM     15  N   LIG d   1      15.546  -5.766  -5.375  0.00  0.00    -0.069 N 
ATOM     16  C   LIG d   1      14.108  -5.755  -5.839  0.00  0.00     0.270 C 
ATOM     17  H   LIG d   1      16.033  -5.011  -5.871  0.00  0.00     0.279 HD
BRANCH  15  18
ATOM     18  C   LIG d   1      15.663  -5.448  -3.893  0.00  0.00     0.273 C 
BRANCH  18  19
ATOM     19  C   LIG d   1      16.872  -4.634  -3.524  0.00  0.00    -0.033 A 
ATOM     20  C   LIG d   1      16.713  -3.370  -2.935  0.00  0.00     0.009 A 
ATOM     21  C   LIG d   1      17.826  -2.612  -2.573  0.00  0.00     0.001 A 
ATOM     22  C   LIG d   1      19.109  -3.106  -2.797  0.00  0.00     0.000 A 
ATOM     23  C   LIG d   1      19.281  -4.361  -3.376  0.00  0.00     0.001 A 
ATOM     24  C   LIG d   1      18.170  -5.126  -3.735  0.00  0.00     0.009 A 
ENDBRANCH  18  19
ENDBRANCH  15  18
ENDBRANCH  14  15
ENDBRANCH  13  14
ENDBRANCH  12  13
ENDBRANCH  10  12
ENDBRANCH   3  10
BRANCH   2  25
ATOM     25  C   LIG d   1      16.569  -3.030  -8.576  0.00  0.00    -0.042 A 
ATOM     26  C   LIG d   1      15.299  -3.567  -8.841  0.00  0.00     0.044 A 
ATOM     27  C   LIG d   1      14.698  -3.347 -10.087  0.00  0.00     0.103 A 
ATOM     28  C   LIG d   1      15.344  -2.603 -11.082  0.00  0.00     0.036 A 
ATOM     29  C   LIG d   1      16.601  -2.063 -10.819  0.00  0.00     0.003 A 
ATOM     30  C   LIG d   1      17.207  -2.271  -9.576  0.00  0.00     0.008 A 
BRANCH  27  31
ATOM     31  N   LIG d   1      13.388  -3.933 -10.368  0.00  0.00    -0.116 N 
ATOM     32  O   LIG d   1      12.509  -3.187 -10.818  0.00  0.00    -0.532 OA
ATOM     33  O   LIG d   1      13.232  -5.130 -10.083  0.00  0.00    -0.532 OA
ENDBRANCH  27  31
ENDBRANCH   2  25
BRANCH   4  34
ATOM     34  C   LIG d   1      16.156  -1.172  -6.138  0.00  0.00     0.291 C 
ATOM     35  O   LIG d   1      15.821  -0.115  -6.647  0.00  0.00    -0.260 OA
BRANCH  34  36
ATOM     36  O   LIG d   1      15.478  -1.851  -5.179  0.00  0.00    -0.323 OA
ATOM     37  C   LIG d   1      14.122  -2.145  -5.520  0.00  0.00     0.213 C 
ENDBRANCH  34  36
ENDBRANCH   4  34
TORSDOF 11
ENDMDL
MODEL 2
REMARK VINA RESULT:      -5.6      3.395      7.160
REMARK  11 active torsions:
REMARK  status: ('A' for Active; 'I' for Inactive)
REMARK    1  A    between atoms: O_1  and  C_16 
REMARK    2  A    between atoms: O_1  and  C_23 
REMARK    3  A    between atoms: O_2  and  C_20 
REMARK    4  A    between atoms: N_8  and  C_22 
REMARK    5  A    between atoms: N_8  and  C_26 
REMARK    6  A    between atoms: N_9  and  C_24 
REMARK    7  A    between atoms: C_10  and  C_13 
REMARK    8  A    between atoms: C_11  and  C_16 
REMARK    9  A    between atoms: C_12  and  C_20 
REMARK   10  A    between atoms: C_22  and  C_23 
REMARK   11  A    between atoms: C_26  and  C_28 
ROOT
ATOM      1  N   LIG d   1      17.556  -1.951  -8.743  0.00  0.00    -0.362 N 
ATOM      2  C   LIG d   1      16.998  -1.610  -5.994  0.00  0.00     0.101 C 
ATOM      3  C   LIG d   1      18.386  -1.387  -6.601  0.00  0.00     0.052 C 
ATOM      4  C   LIG d   1      15.918  -1.850  -7.038  0.00  0.00     0.052 C 
ATOM      5  C   LIG d   1      18.606  -1.557  -7.925  0.00  0.00     0.018 C 
ATOM      6  C   LIG d   1      16.231  -2.033  -8.339  0.00  0.00     0.018 C 
ATOM      7  C   LIG d   1      19.917  -1.304  -8.622  0.00  0.00     0.069 C 
ATOM      8  C   LIG d   1      15.213  -2.286  -9.423  0.00  0.00     0.069 C 
ATOM      9  H   LIG d   1      17.735  -2.005  -9.745  0.00  0.00     0.165 HD
ENDROOT
BRANCH   3  10
ATOM     10  C   LIG d   1      19.412  -0.992  -5.611  0.00  0.00     0.292 C 
ATOM     11  O   LIG d   1      20.225  -1.764  -5.124  0.00  0.00    -0.259 OA
BRANCH  10  12
ATOM     12  O   LIG d   1      19.483   0.361  -5.483  0.00  0.00    -0.316 OA
BRANCH  12  13
ATOM     13  C   LIG d   1      20.771   0.843  -5.064  0.00  0.00     0.206 C 
BRANCH  13  14
ATOM     14  C   LIG d   1      20.631   1.606  -3.739  0.00  0.00     0.261 C 
BRANCH  14  15
ATOM     15  N   LIG d   1      19.955   2.954  -3.890  0.00  0.00    -0.069 N 
ATOM     16  C   LIG d   1      19.687   3.612  -2.557  0.00  0.00     0.270 C 
ATOM     17  H   LIG d   1      19.049   2.823  -4.354  0.00  0.00     0.279 HD
BRANCH  15  18
ATOM     18  C   LIG d   1      20.778   3.846  -4.805  0.00  0.00     0.273 C 
BRANCH  18  19
ATOM     19  C   LIG d   1      19.966   4.685  -5.754  0.00  0.00    -0.033 A 
ATOM     20  C   LIG d   1      20.030   6.085  -5.681  0.00  0.00     0.009 A 
ATOM     21  C   LIG d   1      19.294   6.874  -6.565  0.00  0.00     0.001 A 
ATOM     22  C   LIG d   1      18.487   6.274  -7.528  0.00  0.00     0.000 A 
ATOM     23  C   LIG d   1      18.419   4.885  -7.614  0.00  0.00     0.001 A 
ATOM     24  C   LIG d   1      19.158   4.091  -6.735  0.00  0.00     0.009 A 
ENDBRANCH  18  19
ENDBRANCH  15  18
ENDBRANCH  14  15
ENDBRANCH  13  14
ENDBRANCH  12  13
ENDBRANCH  10  12
ENDBRANCH   3  10
BRANCH   2  25
ATOM     25  C   LIG d   1      17.026  -2.761  -4.975  0.00  0.00    -0.042 A 
ATOM     26  C   LIG d   1      17.353  -4.061  -5.394  0.00  0.00     0.044 A 
ATOM     27  C   LIG d   1      17.401  -5.101  -4.456  0.00  0.00     0.103 A 
ATOM     28  C   LIG d   1      17.124  -4.870  -3.103  0.00  0.00     0.036 A 
ATOM     29  C   LIG d   1      16.807  -3.579  -2.684  0.00  0.00     0.003 A 
ATOM     30  C   LIG d   1      16.763  -2.533  -3.610  0.00  0.00     0.008 A 
BRANCH  27  31
ATOM     31  N   LIG d   1      17.713  -6.458  -4.902  0.00  0.00    -0.116 N 
ATOM     32  O   LIG d   1      18.482  -7.131  -4.202  0.00  0.00    -0.532 OA
ATOM     33  O   LIG d   1      17.228  -6.823  -5.983  0.00  0.00    -0.532 OA
ENDBRANCH  27  31
ENDBRANCH   2  25
BRANCH   4  34
ATOM     34  C   LIG d   1      14.516  -1.897  -6.562  0.00  0.00     0.291 C 
ATOM     35  O   LIG d   1      13.994  -1.050  -5.856  0.00  0.00    -0.260 OA
BRANCH  34  36
ATOM     36  O   LIG d   1      13.925  -3.023  -7.034  0.00  0.00    -0.323 OA
ATOM     37  C   LIG d   1      13.673  -4.013  -6.035  0.00  0.00     0.213 C 
ENDBRANCH  34  36
ENDBRANCH   4  34
TORSDOF 11
ENDMDL
MODEL 3
REMARK VINA RESULT:      -5.6     27.286     31.146
REMARK  11 active torsions:
REMARK  status: ('A' for Active; 'I' for Inactive)
REMARK    1  A    between atoms: O_1  and  C_16 
REMARK    2  A    between atoms: O_1  and  C_23 
REMARK    3  A    between atoms: O_2  and  C_20 
REMARK    4  A    between atoms: N_8  and  C_22 
REMARK    5  A    between atoms: N_8  and  C_26 
REMARK    6  A    between atoms: N_9  and  C_24 
REMARK    7  A    between atoms: C_10  and  C_13 
REMARK    8  A    between atoms: C_11  and  C_16 
REMARK    9  A    between atoms: C_12  and  C_20 
REMARK   10  A    between atoms: C_22  and  C_23 
REMARK   11  A    between atoms: C_26  and  C_28 
ROOT
ATOM      1  N   LIG d   1      27.752  -3.277  23.100  0.00  0.00    -0.362 N 
ATOM      2  C   LIG d   1      24.927  -3.286  23.082  0.00  0.00     0.101 C 
ATOM      3  C   LIG d   1      25.767  -2.433  22.127  0.00  0.00     0.052 C 
ATOM      4  C   LIG d   1      25.755  -4.257  23.907  0.00  0.00     0.052 C 
ATOM      5  C   LIG d   1      27.120  -2.466  22.169  0.00  0.00     0.018 C 
ATOM      6  C   LIG d   1      27.105  -4.203  23.906  0.00  0.00     0.018 C 
ATOM      7  C   LIG d   1      28.030  -1.713  21.234  0.00  0.00     0.069 C 
ATOM      8  C   LIG d   1      27.987  -5.128  24.708  0.00  0.00     0.069 C 
ATOM      9  H   LIG d   1      28.769  -3.333  23.062  0.00  0.00     0.165 HD
ENDROOT
BRANCH   3  10
ATOM     10  C   LIG d   1      24.963  -1.603  21.205  0.00  0.00     0.292 C 
ATOM     11  O   LIG d   1      24.977  -0.380  21.198  0.00  0.00    -0.259 OA
BRANCH  10  12
ATOM     12  O   LIG d   1      24.387  -2.358  20.231  0.00  0.00    -0.316 OA
BRANCH  12  13
ATOM     13  C   LIG d   1      24.111  -1.638  19.018  0.00  0.00     0.206 C 
BRANCH  13  14
ATOM     14  C   LIG d   1      25.212  -1.922  17.986  0.00  0.00     0.261 C 
BRANCH  14  15
ATOM     15  N   LIG d   1      25.547  -3.393  17.854  0.00  0.00    -0.069 N 
ATOM     16  C   LIG d   1      25.190  -3.941  16.492  0.00  0.00     0.270 C 
ATOM     17  H   LIG d   1      25.006  -3.923  18.548  0.00  0.00     0.279 HD
BRANCH  15  18
ATOM     18  C   LIG d   1      27.012  -3.623  18.188  0.00  0.00     0.273 C 
BRANCH  18  19
ATOM     19  C   LIG d   1      27.255  -4.669  19.241  0.00  0.00    -0.033 A 
ATOM     20  C   LIG d   1      28.567  -4.982  19.629  0.00  0.00     0.009 A 
ATOM     21  C   LIG d   1      28.805  -5.939  20.615  0.00  0.00     0.001 A 
ATOM     22  C   LIG d   1      27.737  -6.594  21.223  0.00  0.00     0.000 A 
ATOM     23  C   LIG d   1      26.429  -6.289  20.851  0.00  0.00     0.001 A 
ATOM     24  C   LIG d   1      26.186  -5.328  19.868  0.00  0.00     0.009 A 
ENDBRANCH  18  19
ENDBRANCH  15  18
ENDBRANCH  14  15
ENDBRANCH  13  14
ENDBRANCH  12  13
ENDBRANCH  10  12
ENDBRANCH   3  10
BRANCH   2  25
ATOM     25  C   LIG d   1      24.072  -2.395  23.999  0.00  0.00    -0.042 A 
ATOM     26  C   LIG d   1      24.685  -1.622  24.998  0.00  0.00     0.044 A 
ATOM     27  C   LIG d   1      23.903  -0.794  25.813  0.00  0.00     0.103 A 
ATOM     28  C   LIG d   1      22.513  -0.725  25.656  0.00  0.00     0.036 A 
ATOM     29  C   LIG d   1      21.903  -1.485  24.660  0.00  0.00     0.003 A 
ATOM     30  C   LIG d   1      22.675  -2.309  23.836  0.00  0.00     0.008 A 
BRANCH  27  31
ATOM     31  N   LIG d   1      24.543  -0.013  26.871  0.00  0.00    -0.116 N 
ATOM     32  O   LIG d   1      25.268  -0.617  27.673  0.00  0.00    -0.532 OA
ATOM     33  O   LIG d   1      24.271   1.196  26.924  0.00  0.00    -0.532 OA
ENDBRANCH  27  31
ENDBRANCH   2  25
BRANCH   4  34
ATOM     34  C   LIG d   1      25.019  -5.248  24.727  0.00  0.00     0.291 C 
ATOM     35  O   LIG d   1      24.816  -5.144  25.925  0.00  0.00    -0.260 OA
BRANCH  34  36
ATOM     36  O   LIG d   1      24.620  -6.273  23.932  0.00  0.00    -0.323 OA
ATOM     37  C   LIG d   1      25.378  -7.472  24.100  0.00  0.00     0.213 C 
ENDBRANCH  34  36
ENDBRANCH   4  34
TORSDOF 11
ENDMDL
MODEL 4
REMARK VINA RESULT:      -5.5     29.429     32.851
REMARK  11 active torsions:
REMARK  status: ('A' for Active; 'I' for Inactive)
REMARK    1  A    between atoms: O_1  and  C_16 
REMARK    2  A    between atoms: O_1  and  C_23 
REMARK    3  A    between atoms: O_2  and  C_20 
REMARK    4  A    between atoms: N_8  and  C_22 
REMARK    5  A    between atoms: N_8  and  C_26 
REMARK    6  A    between atoms: N_9  and  C_24 
REMARK    7  A    between atoms: C_10  and  C_13 
REMARK    8  A    between atoms: C_11  and  C_16 
REMARK    9  A    between atoms: C_12  and  C_20 
REMARK   10  A    between atoms: C_22  and  C_23 
REMARK   11  A    between atoms: C_26  and  C_28 
ROOT
ATOM      1  N   LIG d   1      10.277   0.369  25.725  0.00  0.00    -0.362 N 
ATOM      2  C   LIG d   1       8.501  -0.974  23.986  0.00  0.00     0.101 C 
ATOM      3  C   LIG d   1       8.149  -0.624  25.434  0.00  0.00     0.052 C 
ATOM      4  C   LIG d   1       9.817  -0.368  23.524  0.00  0.00     0.052 C 
ATOM      5  C   LIG d   1       9.030   0.025  26.230  0.00  0.00     0.018 C 
ATOM      6  C   LIG d   1      10.649   0.244  24.394  0.00  0.00     0.018 C 
ATOM      7  C   LIG d   1       8.755   0.464  27.644  0.00  0.00     0.069 C 
ATOM      8  C   LIG d   1      11.972   0.856  24.007  0.00  0.00     0.069 C 
ATOM      9  H   LIG d   1      10.893   0.917  26.325  0.00  0.00     0.165 HD
ENDROOT
BRANCH   3  10
ATOM     10  C   LIG d   1       6.800  -1.069  25.844  0.00  0.00     0.292 C 
ATOM     11  O   LIG d   1       6.571  -2.128  26.411  0.00  0.00    -0.259 OA
BRANCH  10  12
ATOM     12  O   LIG d   1       5.887  -0.068  25.716  0.00  0.00    -0.316 OA
BRANCH  12  13
ATOM     13  C   LIG d   1       5.004   0.068  26.841  0.00  0.00     0.206 C 
BRANCH  13  14
ATOM     14  C   LIG d   1       5.179   1.456  27.472  0.00  0.00     0.261 C 
BRANCH  14  15
ATOM     15  N   LIG d   1       5.323   2.566  26.452  0.00  0.00    -0.069 N 
ATOM     16  C   LIG d   1       4.125   3.486  26.435  0.00  0.00     0.270 C 
ATOM     17  H   LIG d   1       5.403   2.152  25.516  0.00  0.00     0.279 HD
BRANCH  15  18
ATOM     18  C   LIG d   1       6.616   3.328  26.693  0.00  0.00     0.273 C 
BRANCH  18  19
ATOM     19  C   LIG d   1       7.549   3.362  25.514  0.00  0.00    -0.033 A 
ATOM     20  C   LIG d   1       8.856   3.851  25.669  0.00  0.00     0.009 A 
ATOM     21  C   LIG d   1       9.736   3.873  24.587  0.00  0.00     0.001 A 
ATOM     22  C   LIG d   1       9.321   3.411  23.341  0.00  0.00     0.000 A 
ATOM     23  C   LIG d   1       8.028   2.918  23.175  0.00  0.00     0.001 A 
ATOM     24  C   LIG d   1       7.145   2.888  24.256  0.00  0.00     0.009 A 
ENDBRANCH  18  19
ENDBRANCH  15  18
ENDBRANCH  14  15
ENDBRANCH  13  14
ENDBRANCH  12  13
ENDBRANCH  10  12
ENDBRANCH   3  10
BRANCH   2  25
ATOM     25  C   LIG d   1       8.508  -2.498  23.779  0.00  0.00    -0.042 A 
ATOM     26  C   LIG d   1       7.571  -3.094  22.920  0.00  0.00     0.044 A 
ATOM     27  C   LIG d   1       7.599  -4.480  22.717  0.00  0.00     0.103 A 
ATOM     28  C   LIG d   1       8.544  -5.288  23.360  0.00  0.00     0.036 A 
ATOM     29  C   LIG d   1       9.480  -4.697  24.207  0.00  0.00     0.003 A 
ATOM     30  C   LIG d   1       9.466  -3.315  24.411  0.00  0.00     0.008 A 
BRANCH  27  31
ATOM     31  N   LIG d   1       6.602  -5.100  21.845  0.00  0.00    -0.116 N 
ATOM     32  O   LIG d   1       5.412  -4.997  22.168  0.00  0.00    -0.532 OA
ATOM     33  O   LIG d   1       7.025  -5.736  20.867  0.00  0.00    -0.532 OA
ENDBRANCH  27  31
ENDBRANCH   2  25
BRANCH   4  34
ATOM     34  C   LIG d   1      10.154  -0.499  22.088  0.00  0.00     0.291 C 
ATOM     35  O   LIG d   1      10.902  -1.344  21.624  0.00  0.00    -0.260 OA
BRANCH  34  36
ATOM     36  O   LIG d   1       9.505   0.467  21.389  0.00  0.00    -0.323 OA
ATOM     37  C   LIG d   1       9.274   0.140  20.018  0.00  0.00     0.213 C 
ENDBRANCH  34  36
ENDBRANCH   4  34
TORSDOF 11
ENDMDL
MODEL 5
REMARK VINA RESULT:      -5.4     26.512     30.466
REMARK  11 active torsions:
REMARK  status: ('A' for Active; 'I' for Inactive)
REMARK    1  A    between atoms: O_1  and  C_16 
REMARK    2  A    between atoms: O_1  and  C_23 
REMARK    3  A    between atoms: O_2  and  C_20 
REMARK    4  A    between atoms: N_8  and  C_22 
REMARK    5  A    between atoms: N_8  and  C_26 
REMARK    6  A    between atoms: N_9  and  C_24 
REMARK    7  A    between atoms: C_10  and  C_13 
REMARK    8  A    between atoms: C_11  and  C_16 
REMARK    9  A    between atoms: C_12  and  C_20 
REMARK   10  A    between atoms: C_22  and  C_23 
REMARK   11  A    between atoms: C_26  and  C_28 
ROOT
ATOM      1  N   LIG d   1      27.789  -3.359  23.291  0.00  0.00    -0.362 N 
ATOM      2  C   LIG d   1      24.964  -3.385  23.319  0.00  0.00     0.101 C 
ATOM      3  C   LIG d   1      25.783  -2.585  22.302  0.00  0.00     0.052 C 
ATOM      4  C   LIG d   1      25.811  -4.302  24.186  0.00  0.00     0.052 C 
ATOM      5  C   LIG d   1      27.136  -2.608  22.324  0.00  0.00     0.018 C 
ATOM      6  C   LIG d   1      27.160  -4.239  24.160  0.00  0.00     0.018 C 
ATOM      7  C   LIG d   1      28.027  -1.905  21.332  0.00  0.00     0.069 C 
ATOM      8  C   LIG d   1      28.061  -5.111  25.000  0.00  0.00     0.069 C 
ATOM      9  H   LIG d   1      28.806  -3.411  23.240  0.00  0.00     0.165 HD
ENDROOT
BRANCH   3  10
ATOM     10  C   LIG d   1      24.959  -1.814  21.347  0.00  0.00     0.292 C 
ATOM     11  O   LIG d   1      24.946  -0.593  21.285  0.00  0.00    -0.259 OA
BRANCH  10  12
ATOM     12  O   LIG d   1      24.398  -2.625  20.409  0.00  0.00    -0.316 OA
BRANCH  12  13
ATOM     13  C   LIG d   1      24.775  -2.307  19.059  0.00  0.00     0.206 C 
BRANCH  13  14
ATOM     14  C   LIG d   1      25.564  -3.476  18.453  0.00  0.00     0.261 C 
BRANCH  14  15
ATOM     15  N   LIG d   1      25.956  -3.251  17.007  0.00  0.00    -0.069 N 
ATOM     16  C   LIG d   1      26.773  -4.394  16.452  0.00  0.00     0.270 C 
ATOM     17  H   LIG d   1      26.533  -2.404  16.945  0.00  0.00     0.279 HD
BRANCH  15  18
ATOM     18  C   LIG d   1      24.716  -2.985  16.169  0.00  0.00     0.273 C 
BRANCH  18  19
ATOM     19  C   LIG d   1      24.802  -1.761  15.300  0.00  0.00    -0.033 A 
ATOM     20  C   LIG d   1      24.343  -0.525  15.782  0.00  0.00     0.009 A 
ATOM     21  C   LIG d   1      24.432   0.621  14.991  0.00  0.00     0.001 A 
ATOM     22  C   LIG d   1      24.977   0.545  13.712  0.00  0.00     0.000 A 
ATOM     23  C   LIG d   1      25.441  -0.675  13.223  0.00  0.00     0.001 A 
ATOM     24  C   LIG d   1      25.360  -1.823  14.013  0.00  0.00     0.009 A 
ENDBRANCH  18  19
ENDBRANCH  15  18
ENDBRANCH  14  15
ENDBRANCH  13  14
ENDBRANCH  12  13
ENDBRANCH  10  12
ENDBRANCH   3  10
BRANCH   2  25
ATOM     25  C   LIG d   1      24.117  -2.447  24.196  0.00  0.00    -0.042 A 
ATOM     26  C   LIG d   1      24.739  -1.628  25.151  0.00  0.00     0.044 A 
ATOM     27  C   LIG d   1      23.965  -0.757  25.930  0.00  0.00     0.103 A 
ATOM     28  C   LIG d   1      22.575  -0.691  25.778  0.00  0.00     0.036 A 
ATOM     29  C   LIG d   1      21.956  -1.498  24.825  0.00  0.00     0.003 A 
ATOM     30  C   LIG d   1      22.720  -2.365  24.038  0.00  0.00     0.008 A 
BRANCH  27  31
ATOM     31  N   LIG d   1      24.615   0.073  26.943  0.00  0.00    -0.116 N 
ATOM     32  O   LIG d   1      25.307  -0.498  27.796  0.00  0.00    -0.532 OA
ATOM     33  O   LIG d   1      24.381   1.290  26.911  0.00  0.00    -0.532 OA
ENDBRANCH  27  31
ENDBRANCH   2  25
BRANCH   4  34
ATOM     34  C   LIG d   1      25.095  -5.247  25.074  0.00  0.00     0.291 C 
ATOM     35  O   LIG d   1      25.043  -5.154  26.289  0.00  0.00    -0.260 OA
BRANCH  34  36
ATOM     36  O   LIG d   1      24.520  -6.216  24.318  0.00  0.00    -0.323 OA
ATOM     37  C   LIG d   1      25.361  -7.345  24.079  0.00  0.00     0.213 C 
ENDBRANCH  34  36
ENDBRANCH   4  34
TORSDOF 11
ENDMDL
MODEL 6
REMARK VINA RESULT:      -5.2     25.788     29.302
REMARK  11 active torsions:
REMARK  status: ('A' for Active; 'I' for Inactive)
REMARK    1  A    between atoms: O_1  and  C_16 
REMARK    2  A    between atoms: O_1  and  C_23 
REMARK    3  A    between atoms: O_2  and  C_20 
REMARK    4  A    between atoms: N_8  and  C_22 
REMARK    5  A    between atoms: N_8  and  C_26 
REMARK    6  A    between atoms: N_9  and  C_24 
REMARK    7  A    between atoms: C_10  and  C_13 
REMARK    8  A    between atoms: C_11  and  C_16 
REMARK    9  A    between atoms: C_12  and  C_20 
REMARK   10  A    between atoms: C_22  and  C_23 
REMARK   11  A    between atoms: C_26  and  C_28 
ROOT
ATOM      1  N   LIG d   1      28.931  -3.438  19.366  0.00  0.00    -0.362 N 
ATOM      2  C   LIG d   1      26.499  -2.594  20.531  0.00  0.00     0.101 C 
ATOM      3  C   LIG d   1      26.804  -4.057  20.197  0.00  0.00     0.052 C 
ATOM      4  C   LIG d   1      27.696  -1.674  20.347  0.00  0.00     0.052 C 
ATOM      5  C   LIG d   1      27.986  -4.416  19.644  0.00  0.00     0.018 C 
ATOM      6  C   LIG d   1      28.832  -2.112  19.762  0.00  0.00     0.018 C 
ATOM      7  C   LIG d   1      28.400  -5.831  19.337  0.00  0.00     0.069 C 
ATOM      8  C   LIG d   1      30.051  -1.252  19.540  0.00  0.00     0.069 C 
ATOM      9  H   LIG d   1      29.837  -3.746  19.014  0.00  0.00     0.165 HD
ENDROOT
BRANCH   3  10
ATOM     10  C   LIG d   1      25.701  -4.985  20.526  0.00  0.00     0.292 C 
ATOM     11  O   LIG d   1      25.281  -5.846  19.765  0.00  0.00    -0.259 OA
BRANCH  10  12
ATOM     12  O   LIG d   1      25.367  -4.914  21.843  0.00  0.00    -0.316 OA
BRANCH  12  13
ATOM     13  C   LIG d   1      26.204  -5.703  22.704  0.00  0.00     0.206 C 
BRANCH  13  14
ATOM     14  C   LIG d   1      26.838  -4.804  23.775  0.00  0.00     0.261 C 
BRANCH  14  15
ATOM     15  N   LIG d   1      25.820  -4.091  24.641  0.00  0.00    -0.069 N 
ATOM     16  C   LIG d   1      25.917  -4.500  26.092  0.00  0.00     0.270 C 
ATOM     17  H   LIG d   1      24.876  -4.335  24.317  0.00  0.00     0.279 HD
BRANCH  15  18
ATOM     18  C   LIG d   1      25.955  -2.587  24.468  0.00  0.00     0.273 C 
BRANCH  18  19
ATOM     19  C   LIG d   1      24.678  -1.884  24.098  0.00  0.00    -0.033 A 
ATOM     20  C   LIG d   1      24.701  -0.523  23.756  0.00  0.00     0.009 A 
ATOM     21  C   LIG d   1      23.525   0.136  23.396  0.00  0.00     0.001 A 
ATOM     22  C   LIG d   1      22.316  -0.554  23.376  0.00  0.00     0.000 A 
ATOM     23  C   LIG d   1      22.281  -1.907  23.709  0.00  0.00     0.001 A 
ATOM     24  C   LIG d   1      23.455  -2.573  24.065  0.00  0.00     0.009 A 
ENDBRANCH  18  19
ENDBRANCH  15  18
ENDBRANCH  14  15
ENDBRANCH  13  14
ENDBRANCH  12  13
ENDBRANCH  10  12
ENDBRANCH   3  10
BRANCH   2  25
ATOM     25  C   LIG d   1      25.300  -2.086  19.713  0.00  0.00    -0.042 A 
ATOM     26  C   LIG d   1      25.400  -1.974  18.317  0.00  0.00     0.044 A 
ATOM     27  C   LIG d   1      24.295  -1.535  17.576  0.00  0.00     0.103 A 
ATOM     28  C   LIG d   1      23.089  -1.197  18.202  0.00  0.00     0.036 A 
ATOM     29  C   LIG d   1      22.986  -1.315  19.587  0.00  0.00     0.003 A 
ATOM     30  C   LIG d   1      24.079  -1.760  20.335  0.00  0.00     0.008 A 
BRANCH  27  31
ATOM     31  N   LIG d   1      24.413  -1.392  16.125  0.00  0.00    -0.116 N 
ATOM     32  O   LIG d   1      25.097  -0.454  15.694  0.00  0.00    -0.532 OA
ATOM     33  O   LIG d   1      23.772  -2.190  15.425  0.00  0.00    -0.532 OA
ENDBRANCH  27  31
ENDBRANCH   2  25
BRANCH   4  34
ATOM     34  C   LIG d   1      27.553  -0.277  20.816  0.00  0.00     0.291 C 
ATOM     35  O   LIG d   1      27.230   0.663  20.108  0.00  0.00    -0.260 OA
BRANCH  34  36
ATOM     36  O   LIG d   1      27.840  -0.221  22.141  0.00  0.00    -0.323 OA
ATOM     37  C   LIG d   1      27.947   1.106  22.659  0.00  0.00     0.213 C 
ENDBRANCH  34  36
ENDBRANCH   4  34
TORSDOF 11
ENDMDL
MODEL 7
REMARK VINA RESULT:      -5.2     23.596     26.684
REMARK  11 active torsions:
REMARK  status: ('A' for Active; 'I' for Inactive)
REMARK    1  A    between atoms: O_1  and  C_16 
REMARK    2  A    between atoms: O_1  and  C_23 
REMARK    3  A    between atoms: O_2  and  C_20 
REMARK    4  A    between atoms: N_8  and  C_22 
REMARK    5  A    between atoms: N_8  and  C_26 
REMARK    6  A    between atoms: N_9  and  C_24 
REMARK    7  A    between atoms: C_10  and  C_13 
REMARK    8  A    between atoms: C_11  and  C_16 
REMARK    9  A    between atoms: C_12  and  C_20 
REMARK   10  A    between atoms: C_22  and  C_23 
REMARK   11  A    between atoms: C_26  and  C_28 
ROOT
ATOM      1  N   LIG d   1      11.541  18.540   7.692  0.00  0.00    -0.362 N 
ATOM      2  C   LIG d   1      11.187  17.743   5.004  0.00  0.00     0.101 C 
ATOM      3  C   LIG d   1      12.073  18.921   5.418  0.00  0.00     0.052 C 
ATOM      4  C   LIG d   1      10.669  16.937   6.185  0.00  0.00     0.052 C 
ATOM      5  C   LIG d   1      12.217  19.263   6.719  0.00  0.00     0.018 C 
ATOM      6  C   LIG d   1      10.838  17.367   7.454  0.00  0.00     0.018 C 
ATOM      7  C   LIG d   1      13.111  20.364   7.228  0.00  0.00     0.069 C 
ATOM      8  C   LIG d   1      10.343  16.624   8.670  0.00  0.00     0.069 C 
ATOM      9  H   LIG d   1      11.723  18.777   8.666  0.00  0.00     0.165 HD
ENDROOT
BRANCH   3  10
ATOM     10  C   LIG d   1      12.713  19.613   4.279  0.00  0.00     0.292 C 
ATOM     11  O   LIG d   1      13.548  19.100   3.548  0.00  0.00    -0.259 OA
BRANCH  10  12
ATOM     12  O   LIG d   1      12.102  20.799   4.011  0.00  0.00    -0.316 OA
BRANCH  12  13
ATOM     13  C   LIG d   1      11.911  21.057   2.611  0.00  0.00     0.206 C 
BRANCH  13  14
ATOM     14  C   LIG d   1      11.500  22.522   2.406  0.00  0.00     0.261 C 
BRANCH  14  15
ATOM     15  N   LIG d   1      10.165  22.679   1.706  0.00  0.00    -0.069 N 
ATOM     16  C   LIG d   1       9.370  23.845   2.246  0.00  0.00     0.270 C 
ATOM     17  H   LIG d   1       9.606  21.831   1.858  0.00  0.00     0.279 HD
BRANCH  15  18
ATOM     18  C   LIG d   1      10.376  22.788   0.205  0.00  0.00     0.273 C 
BRANCH  18  19
ATOM     19  C   LIG d   1       9.134  22.580  -0.617  0.00  0.00    -0.033 A 
ATOM     20  C   LIG d   1       8.792  23.504  -1.616  0.00  0.00     0.009 A 
ATOM     21  C   LIG d   1       7.651  23.314  -2.396  0.00  0.00     0.001 A 
ATOM     22  C   LIG d   1       6.839  22.203  -2.184  0.00  0.00     0.000 A 
ATOM     23  C   LIG d   1       7.170  21.275  -1.198  0.00  0.00     0.001 A 
ATOM     24  C   LIG d   1       8.314  21.458  -0.420  0.00  0.00     0.009 A 
ENDBRANCH  18  19
ENDBRANCH  15  18
ENDBRANCH  14  15
ENDBRANCH  13  14
ENDBRANCH  12  13
ENDBRANCH  10  12
ENDBRANCH   3  10
BRANCH   2  25
ATOM     25  C   LIG d   1      10.018  18.222   4.126  0.00  0.00    -0.042 A 
ATOM     26  C   LIG d   1      10.008  17.932   2.752  0.00  0.00     0.044 A 
ATOM     27  C   LIG d   1       8.928  18.349   1.963  0.00  0.00     0.103 A 
ATOM     28  C   LIG d   1       7.856  19.058   2.518  0.00  0.00     0.036 A 
ATOM     29  C   LIG d   1       7.860  19.341   3.883  0.00  0.00     0.003 A 
ATOM     30  C   LIG d   1       8.929  18.922   4.681  0.00  0.00     0.008 A 
BRANCH  27  31
ATOM     31  N   LIG d   1       8.936  18.071   0.528  0.00  0.00    -0.116 N 
ATOM     32  O   LIG d   1      10.035  17.958  -0.030  0.00  0.00    -0.532 OA
ATOM     33  O   LIG d   1       7.836  18.022  -0.044  0.00  0.00    -0.532 OA
ENDBRANCH  27  31
ENDBRANCH   2  25
BRANCH   4  34
ATOM     34  C   LIG d   1       9.954  15.676   5.882  0.00  0.00     0.291 C 
ATOM     35  O   LIG d   1       8.745  15.527   5.960  0.00  0.00    -0.260 OA
BRANCH  34  36
ATOM     36  O   LIG d   1      10.856  14.732   5.512  0.00  0.00    -0.323 OA
ATOM     37  C   LIG d   1      10.283  13.451   5.243  0.00  0.00     0.213 C 
ENDBRANCH  34  36
ENDBRANCH   4  34
TORSDOF 11
ENDMDL
MODEL 8
REMARK VINA RESULT:      -5.0     29.646     33.252
REMARK  11 active torsions:
REMARK  status: ('A' for Active; 'I' for Inactive)
REMARK    1  A    between atoms: O_1  and  C_16 
REMARK    2  A    between atoms: O_1  and  C_23 
REMARK    3  A    between atoms: O_2  and  C_20 
REMARK    4  A    between atoms: N_8  and  C_22 
REMARK    5  A    between atoms: N_8  and  C_26 
REMARK    6  A    between atoms: N_9  and  C_24 
REMARK    7  A    between atoms: C_10  and  C_13 
REMARK    8  A    between atoms: C_11  and  C_16 
REMARK    9  A    between atoms: C_12  and  C_20 
REMARK   10  A    between atoms: C_22  and  C_23 
REMARK   11  A    between atoms: C_26  and  C_28 
ROOT
ATOM      1  N   LIG d   1       3.372  -3.608  26.657  0.00  0.00    -0.362 N 
ATOM      2  C   LIG d   1       6.149  -3.538  26.140  0.00  0.00     0.101 C 
ATOM      3  C   LIG d   1       5.347  -2.308  26.575  0.00  0.00     0.052 C 
ATOM      4  C   LIG d   1       5.347  -4.828  26.194  0.00  0.00     0.052 C 
ATOM      5  C   LIG d   1       4.018  -2.391  26.817  0.00  0.00     0.018 C 
ATOM      6  C   LIG d   1       4.015  -4.815  26.420  0.00  0.00     0.018 C 
ATOM      7  C   LIG d   1       3.158  -1.254  27.305  0.00  0.00     0.069 C 
ATOM      8  C   LIG d   1       3.157  -6.055  26.477  0.00  0.00     0.069 C 
ATOM      9  H   LIG d   1       2.387  -3.656  26.913  0.00  0.00     0.165 HD
ENDROOT
BRANCH   3  10
ATOM     10  C   LIG d   1       6.158  -1.076  26.682  0.00  0.00     0.292 C 
ATOM     11  O   LIG d   1       7.088  -0.935  27.464  0.00  0.00    -0.259 OA
BRANCH  10  12
ATOM     12  O   LIG d   1       5.890  -0.215  25.663  0.00  0.00    -0.316 OA
BRANCH  12  13
ATOM     13  C   LIG d   1       6.872   0.821  25.498  0.00  0.00     0.206 C 
BRANCH  13  14
ATOM     14  C   LIG d   1       7.644   0.599  24.191  0.00  0.00     0.261 C 
BRANCH  14  15
ATOM     15  N   LIG d   1       7.284   1.591  23.104  0.00  0.00    -0.069 N 
ATOM     16  C   LIG d   1       6.867   2.929  23.666  0.00  0.00     0.270 C 
ATOM     17  H   LIG d   1       6.490   1.224  22.566  0.00  0.00     0.279 HD
BRANCH  15  18
ATOM     18  C   LIG d   1       8.438   1.725  22.122  0.00  0.00     0.273 C 
BRANCH  18  19
ATOM     19  C   LIG d   1       8.141   1.219  20.738  0.00  0.00    -0.033 A 
ATOM     20  C   LIG d   1       6.897   1.488  20.145  0.00  0.00     0.009 A 
ATOM     21  C   LIG d   1       6.616   1.038  18.855  0.00  0.00     0.001 A 
ATOM     22  C   LIG d   1       7.570   0.314  18.145  0.00  0.00     0.000 A 
ATOM     23  C   LIG d   1       8.811   0.044  18.721  0.00  0.00     0.001 A 
ATOM     24  C   LIG d   1       9.099   0.498  20.009  0.00  0.00     0.009 A 
ENDBRANCH  18  19
ENDBRANCH  15  18
ENDBRANCH  14  15
ENDBRANCH  13  14
ENDBRANCH  12  13
ENDBRANCH  10  12
ENDBRANCH   3  10
BRANCH   2  25
ATOM     25  C   LIG d   1       6.744  -3.334  24.737  0.00  0.00    -0.042 A 
ATOM     26  C   LIG d   1       8.122  -3.107  24.584  0.00  0.00     0.044 A 
ATOM     27  C   LIG d   1       8.661  -2.947  23.301  0.00  0.00     0.103 A 
ATOM     28  C   LIG d   1       7.850  -3.002  22.162  0.00  0.00     0.036 A 
ATOM     29  C   LIG d   1       6.483  -3.233  22.310  0.00  0.00     0.003 A 
ATOM     30  C   LIG d   1       5.936  -3.402  23.585  0.00  0.00     0.008 A 
BRANCH  27  31
ATOM     31  N   LIG d   1      10.091  -2.682  23.150  0.00  0.00    -0.116 N 
ATOM     32  O   LIG d   1      10.833  -2.976  24.096  0.00  0.00    -0.532 OA
ATOM     33  O   LIG d   1      10.455  -2.129  22.102  0.00  0.00    -0.532 OA
ENDBRANCH  27  31
ENDBRANCH   2  25
BRANCH   4  34
ATOM     34  C   LIG d   1       6.083  -6.093  25.967  0.00  0.00     0.291 C 
ATOM     35  O   LIG d   1       5.897  -6.845  25.025  0.00  0.00    -0.260 OA
BRANCH  34  36
ATOM     36  O   LIG d   1       6.981  -6.271  26.969  0.00  0.00    -0.323 OA
ATOM     37  C   LIG d   1       6.408  -6.746  28.189  0.00  0.00     0.213 C 
ENDBRANCH  34  36
ENDBRANCH   4  34
TORSDOF 11
ENDMDL
MODEL 9
REMARK VINA RESULT:      -5.0     29.617     32.951
REMARK  11 active torsions:
REMARK  status: ('A' for Active; 'I' for Inactive)
REMARK    1  A    between atoms: O_1  and  C_16 
REMARK    2  A    between atoms: O_1  and  C_23 
REMARK    3  A    between atoms: O_2  and  C_20 
REMARK    4  A    between atoms: N_8  and  C_22 
REMARK    5  A    between atoms: N_8  and  C_26 
REMARK    6  A    between atoms: N_9  and  C_24 
REMARK    7  A    between atoms: C_10  and  C_13 
REMARK    8  A    between atoms: C_11  and  C_16 
REMARK    9  A    between atoms: C_12  and  C_20 
REMARK   10  A    between atoms: C_22  and  C_23 
REMARK   11  A    between atoms: C_26  and  C_28 
ROOT
ATOM      1  N   LIG d   1       9.834   0.943  25.622  0.00  0.00    -0.362 N 
ATOM      2  C   LIG d   1       8.194  -0.760  24.075  0.00  0.00     0.101 C 
ATOM      3  C   LIG d   1       7.903  -0.421  25.540  0.00  0.00     0.052 C 
ATOM      4  C   LIG d   1       9.339   0.050  23.488  0.00  0.00     0.052 C 
ATOM      5  C   LIG d   1       8.714   0.405  26.240  0.00  0.00     0.018 C 
ATOM      6  C   LIG d   1      10.115   0.833  24.268  0.00  0.00     0.018 C 
ATOM      7  C   LIG d   1       8.479   0.844  27.662  0.00  0.00     0.069 C 
ATOM      8  C   LIG d   1      11.271   1.655  23.753  0.00  0.00     0.069 C 
ATOM      9  H   LIG d   1      10.388   1.615  26.153  0.00  0.00     0.165 HD
ENDROOT
BRANCH   3  10
ATOM     10  C   LIG d   1       6.692  -1.081  26.074  0.00  0.00     0.292 C 
ATOM     11  O   LIG d   1       5.565  -0.901  25.636  0.00  0.00    -0.259 OA
BRANCH  10  12
ATOM     12  O   LIG d   1       7.013  -2.070  26.953  0.00  0.00    -0.316 OA
BRANCH  12  13
ATOM     13  C   LIG d   1       6.018  -3.101  27.064  0.00  0.00     0.206 C 
BRANCH  13  14
ATOM     14  C   LIG d   1       6.553  -4.404  26.456  0.00  0.00     0.261 C 
BRANCH  14  15
ATOM     15  N   LIG d   1       5.565  -5.088  25.534  0.00  0.00    -0.069 N 
ATOM     16  C   LIG d   1       5.915  -6.538  25.294  0.00  0.00     0.270 C 
ATOM     17  H   LIG d   1       5.576  -4.616  24.622  0.00  0.00     0.279 HD
BRANCH  15  18
ATOM     18  C   LIG d   1       4.154  -4.931  26.078  0.00  0.00     0.273 C 
BRANCH  18  19
ATOM     19  C   LIG d   1       3.068  -5.348  25.126  0.00  0.00    -0.033 A 
ATOM     20  C   LIG d   1       2.136  -6.326  25.510  0.00  0.00     0.009 A 
ATOM     21  C   LIG d   1       1.115  -6.709  24.642  0.00  0.00     0.001 A 
ATOM     22  C   LIG d   1       1.014  -6.125  23.382  0.00  0.00     0.000 A 
ATOM     23  C   LIG d   1       1.929  -5.150  22.990  0.00  0.00     0.001 A 
ATOM     24  C   LIG d   1       2.950  -4.758  23.858  0.00  0.00     0.009 A 
ENDBRANCH  18  19
ENDBRANCH  15  18
ENDBRANCH  14  15
ENDBRANCH  13  14
ENDBRANCH  12  13
ENDBRANCH  10  12
ENDBRANCH   3  10
BRANCH   2  25
ATOM     25  C   LIG d   1       8.459  -2.266  23.906  0.00  0.00    -0.042 A 
ATOM     26  C   LIG d   1       7.643  -3.031  23.057  0.00  0.00     0.044 A 
ATOM     27  C   LIG d   1       7.905  -4.397  22.888  0.00  0.00     0.103 A 
ATOM     28  C   LIG d   1       8.966  -5.019  23.557  0.00  0.00     0.036 A 
ATOM     29  C   LIG d   1       9.781  -4.261  24.394  0.00  0.00     0.003 A 
ATOM     30  C   LIG d   1       9.533  -2.896  24.564  0.00  0.00     0.008 A 
BRANCH  27  31
ATOM     31  N   LIG d   1       7.035  -5.195  22.026  0.00  0.00    -0.116 N 
ATOM     32  O   LIG d   1       5.845  -4.862  21.944  0.00  0.00    -0.532 OA
ATOM     33  O   LIG d   1       7.538  -6.187  21.478  0.00  0.00    -0.532 OA
ENDBRANCH  27  31
ENDBRANCH   2  25
BRANCH   4  34
ATOM     34  C   LIG d   1       9.578  -0.075  22.031  0.00  0.00     0.291 C 
ATOM     35  O   LIG d   1      10.556  -0.607  21.532  0.00  0.00    -0.260 OA
BRANCH  34  36
ATOM     36  O   LIG d   1       8.545   0.495  21.361  0.00  0.00    -0.323 OA
ATOM     37  C   LIG d   1       8.771   0.642  19.958  0.00  0.00     0.213 C 
ENDBRANCH  34  36
ENDBRANCH   4  34
TORSDOF 11
ENDMDL
