MODEL 1
REMARK minimizedAffinity -3.85054183REMARK CNNscore 0.745885372REMARK CNNaffinity 3.32906795REMARK  1 active torsions:
REMARK  status: ('A' for Active; 'I' for Inactive)
REMARK    1  A    between atoms: C_3  and  C_7 
ROOT
ATOM      1  N   LIG d   1      27.089  -4.886  16.858  0.00  0.00    -0.067 N 
ATOM      2  C   LIG d   1      25.583  -4.745  17.024  0.00  0.00     0.222 C 
ATOM      3  C   LIG d   1      25.386  -5.231  18.463  0.00  0.00     0.040 C 
ATOM      4  C   LIG d   1      26.679  -4.916  19.212  0.00  0.00     0.030 C 
ATOM      5  C   LIG d   1      27.699  -4.484  18.172  0.00  0.00     0.235 C 
ATOM      6  C   LIG d   1      27.704  -4.218  15.669  0.00  0.00     0.270 C 
ATOM      7  H   LIG d   1      27.267  -5.892  16.746  0.00  0.00     0.280 HD
ENDROOT
BRANCH   2   8
ATOM      8  C   LIG d   1      25.024  -3.381  16.706  0.00  0.00    -0.010 A 
ATOM      9  C   LIG d   1      25.007  -2.380  17.690  0.00  0.00     0.012 A 
ATOM     10  C   LIG d   1      24.465  -1.127  17.411  0.00  0.00     0.020 A 
ATOM     11  C   LIG d   1      23.943  -0.906  16.152  0.00  0.00     0.116 A 
ATOM     12  N   LIG d   1      23.935  -1.842  15.180  0.00  0.00    -0.273 NA
ATOM     13  C   LIG d   1      24.480  -3.042  15.469  0.00  0.00     0.125 A 
ENDBRANCH   2   8
TORSDOF 1
ENDMDL
MODEL 2
REMARK minimizedAffinity -4.5791173REMARK CNNscore 0.710842848REMARK CNNaffinity 3.35522008REMARK  1 active torsions:
REMARK  status: ('A' for Active; 'I' for Inactive)
REMARK    1  A    between atoms: C_3  and  C_7 
ROOT
ATOM      1  N   LIG d   1      -0.212  10.762  -1.585  0.00  0.00    -0.067 N 
ATOM      2  C   LIG d   1       1.174  10.284  -1.995  0.00  0.00     0.222 C 
ATOM      3  C   LIG d   1       1.299   8.984  -1.197  0.00  0.00     0.040 C 
ATOM      4  C   LIG d   1      -0.117   8.442  -1.017  0.00  0.00     0.030 C 
ATOM      5  C   LIG d   1      -1.069   9.531  -1.482  0.00  0.00     0.235 C 
ATOM      6  C   LIG d   1      -0.817  11.862  -2.398  0.00  0.00     0.270 C 
ATOM      7  H   LIG d   1      -0.111  11.132  -0.632  0.00  0.00     0.280 HD
ENDROOT
BRANCH   2   8
ATOM      8  C   LIG d   1       1.403  10.172  -3.482  0.00  0.00    -0.010 A 
ATOM      9  C   LIG d   1       0.933   9.050  -4.183  0.00  0.00     0.012 A 
ATOM     10  C   LIG d   1       1.168   8.926  -5.551  0.00  0.00     0.020 A 
ATOM     11  C   LIG d   1       1.876   9.927  -6.186  0.00  0.00     0.116 A 
ATOM     12  N   LIG d   1       2.349  11.017  -5.548  0.00  0.00    -0.273 NA
ATOM     13  C   LIG d   1       2.095  11.123  -4.227  0.00  0.00     0.125 A 
ENDBRANCH   2   8
TORSDOF 1
ENDMDL
MODEL 3
REMARK minimizedAffinity -4.82643652REMARK CNNscore 0.648917437REMARK CNNaffinity 3.60930014REMARK  1 active torsions:
REMARK  status: ('A' for Active; 'I' for Inactive)
REMARK    1  A    between atoms: C_3  and  C_7 
ROOT
ATOM      1  N   LIG d   1      20.163   5.847  -3.026  0.00  0.00    -0.067 N 
ATOM      2  C   LIG d   1      18.770   6.182  -3.539  0.00  0.00     0.222 C 
ATOM      3  C   LIG d   1      18.725   7.699  -3.335  0.00  0.00     0.040 C 
ATOM      4  C   LIG d   1      20.163   8.199  -3.448  0.00  0.00     0.030 C 
ATOM      5  C   LIG d   1      21.058   6.971  -3.467  0.00  0.00     0.235 C 
ATOM      6  C   LIG d   1      20.692   4.485  -3.344  0.00  0.00     0.270 C 
ATOM      7  H   LIG d   1      20.106   5.900  -2.001  0.00  0.00     0.280 HD
ENDROOT
BRANCH   2   8
ATOM      8  C   LIG d   1      18.461   5.693  -4.932  0.00  0.00    -0.010 A 
ATOM      9  C   LIG d   1      18.846   6.456  -6.046  0.00  0.00     0.012 A 
ATOM     10  C   LIG d   1      18.537   6.025  -7.335  0.00  0.00     0.020 A 
ATOM     11  C   LIG d   1      17.842   4.840  -7.478  0.00  0.00     0.116 A 
ATOM     12  N   LIG d   1      17.449   4.081  -6.434  0.00  0.00    -0.273 NA
ATOM     13  C   LIG d   1      17.774   4.512  -5.197  0.00  0.00     0.125 A 
ENDBRANCH   2   8
TORSDOF 1
ENDMDL
MODEL 4
REMARK minimizedAffinity -3.2541182REMARK CNNscore 0.646631002REMARK CNNaffinity 3.0539546REMARK  1 active torsions:
REMARK  status: ('A' for Active; 'I' for Inactive)
REMARK    1  A    between atoms: C_3  and  C_7 
ROOT
ATOM      1  N   LIG d   1      -5.518  -7.131  14.771  0.00  0.00    -0.067 N 
ATOM      2  C   LIG d   1      -4.047  -6.819  15.009  0.00  0.00     0.222 C 
ATOM      3  C   LIG d   1      -3.379  -7.613  13.882  0.00  0.00     0.040 C 
ATOM      4  C   LIG d   1      -4.389  -7.684  12.739  0.00  0.00     0.030 C 
ATOM      5  C   LIG d   1      -5.708  -7.160  13.280  0.00  0.00     0.235 C 
ATOM      6  C   LIG d   1      -6.515  -6.285  15.498  0.00  0.00     0.270 C 
ATOM      7  H   LIG d   1      -5.659  -8.093  15.105  0.00  0.00     0.280 HD
ENDROOT
BRANCH   2   8
ATOM      8  C   LIG d   1      -3.702  -5.353  15.078  0.00  0.00    -0.010 A 
ATOM      9  C   LIG d   1      -3.298  -4.782  16.295  0.00  0.00     0.012 A 
ATOM     10  C   LIG d   1      -3.006  -3.422  16.373  0.00  0.00     0.020 A 
ATOM     11  C   LIG d   1      -3.134  -2.660  15.228  0.00  0.00     0.116 A 
ATOM     12  N   LIG d   1      -3.524  -3.168  14.041  0.00  0.00    -0.273 NA
ATOM     13  C   LIG d   1      -3.785  -4.491  13.987  0.00  0.00     0.125 A 
ENDBRANCH   2   8
TORSDOF 1
ENDMDL
MODEL 5
REMARK minimizedAffinity -4.56456327REMARK CNNscore 0.640323818REMARK CNNaffinity 3.74044085REMARK  1 active torsions:
REMARK  status: ('A' for Active; 'I' for Inactive)
REMARK    1  A    between atoms: C_3  and  C_7 
ROOT
ATOM      1  N   LIG d   1       8.283  -3.982  25.815  0.00  0.00    -0.067 N 
ATOM      2  C   LIG d   1       8.682  -3.490  24.431  0.00  0.00     0.222 C 
ATOM      3  C   LIG d   1      10.209  -3.587  24.500  0.00  0.00     0.040 C 
ATOM      4  C   LIG d   1      10.532  -4.715  25.478  0.00  0.00     0.030 C 
ATOM      5  C   LIG d   1       9.228  -5.100  26.155  0.00  0.00     0.235 C 
ATOM      6  C   LIG d   1       6.840  -4.317  26.023  0.00  0.00     0.270 C 
ATOM      7  H   LIG d   1       8.494  -3.210  26.460  0.00  0.00     0.280 HD
ENDROOT
BRANCH   2   8
ATOM      8  C   LIG d   1       8.026  -4.207  23.277  0.00  0.00    -0.010 A 
ATOM      9  C   LIG d   1       8.635  -5.341  22.716  0.00  0.00     0.012 A 
ATOM     10  C   LIG d   1       8.049  -5.990  21.631  0.00  0.00     0.020 A 
ATOM     11  C   LIG d   1       6.868  -5.483  21.126  0.00  0.00     0.116 A 
ATOM     12  N   LIG d   1       6.254  -4.394  21.633  0.00  0.00    -0.273 NA
ATOM     13  C   LIG d   1       6.832  -3.793  22.694  0.00  0.00     0.125 A 
ENDBRANCH   2   8
TORSDOF 1
ENDMDL
MODEL 6
REMARK minimizedAffinity -3.26690626REMARK CNNscore 0.626737535REMARK CNNaffinity 3.01973557REMARK  1 active torsions:
REMARK  status: ('A' for Active; 'I' for Inactive)
REMARK    1  A    between atoms: C_3  and  C_7 
ROOT
ATOM      1  N   LIG d   1      -5.440  -6.515  16.264  0.00  0.00    -0.067 N 
ATOM      2  C   LIG d   1      -3.922  -6.464  16.166  0.00  0.00     0.222 C 
ATOM      3  C   LIG d   1      -3.708  -6.604  14.656  0.00  0.00     0.040 C 
ATOM      4  C   LIG d   1      -4.944  -6.011  13.982  0.00  0.00     0.030 C 
ATOM      5  C   LIG d   1      -5.967  -5.760  15.077  0.00  0.00     0.235 C 
ATOM      6  C   LIG d   1      -6.048  -6.104  17.568  0.00  0.00     0.270 C 
ATOM      7  H   LIG d   1      -5.698  -7.500  16.126  0.00  0.00     0.280 HD
ENDROOT
BRANCH   2   8
ATOM      8  C   LIG d   1      -3.274  -5.268  16.817  0.00  0.00    -0.010 A 
ATOM      9  C   LIG d   1      -3.203  -4.045  16.130  0.00  0.00     0.012 A 
ATOM     10  C   LIG d   1      -2.579  -2.945  16.714  0.00  0.00     0.020 A 
ATOM     11  C   LIG d   1      -2.032  -3.096  17.973  0.00  0.00     0.116 A 
ATOM     12  N   LIG d   1      -2.074  -4.254  18.664  0.00  0.00    -0.273 NA
ATOM     13  C   LIG d   1      -2.698  -5.300  18.084  0.00  0.00     0.125 A 
ENDBRANCH   2   8
TORSDOF 1
ENDMDL
MODEL 7
REMARK minimizedAffinity -3.68816638REMARK CNNscore 0.603889406REMARK CNNaffinity 2.91415095REMARK  1 active torsions:
REMARK  status: ('A' for Active; 'I' for Inactive)
REMARK    1  A    between atoms: C_3  and  C_7 
ROOT
ATOM      1  N   LIG d   1       7.057 -26.688  24.837  0.00  0.00    -0.067 N 
ATOM      2  C   LIG d   1       7.372 -26.582  23.351  0.00  0.00     0.222 C 
ATOM      3  C   LIG d   1       6.090 -25.942  22.811  0.00  0.00     0.040 C 
ATOM      4  C   LIG d   1       5.509 -25.101  23.945  0.00  0.00     0.030 C 
ATOM      5  C   LIG d   1       6.299 -25.441  25.198  0.00  0.00     0.235 C 
ATOM      6  C   LIG d   1       8.202 -26.993  25.751  0.00  0.00     0.270 C 
ATOM      7  H   LIG d   1       6.399 -27.471  24.930  0.00  0.00     0.280 HD
ENDROOT
BRANCH   2   8
ATOM      8  C   LIG d   1       8.658 -25.871  23.013  0.00  0.00    -0.010 A 
ATOM      9  C   LIG d   1       8.814 -24.512  23.328  0.00  0.00     0.012 A 
ATOM     10  C   LIG d   1       9.988 -23.841  22.991  0.00  0.00     0.020 A 
ATOM     11  C   LIG d   1      10.980 -24.547  22.339  0.00  0.00     0.116 A 
ATOM     12  N   LIG d   1      10.868 -25.852  22.015  0.00  0.00    -0.273 NA
ATOM     13  C   LIG d   1       9.728 -26.484  22.366  0.00  0.00     0.125 A 
ENDBRANCH   2   8
TORSDOF 1
ENDMDL
MODEL 8
REMARK minimizedAffinity -3.35697842REMARK CNNscore 0.581417859REMARK CNNaffinity 3.16600132REMARK  1 active torsions:
REMARK  status: ('A' for Active; 'I' for Inactive)
REMARK    1  A    between atoms: C_3  and  C_7 
ROOT
ATOM      1  N   LIG d   1      26.095  -0.996  16.510  0.00  0.00    -0.067 N 
ATOM      2  C   LIG d   1      25.947  -2.145  15.524  0.00  0.00     0.222 C 
ATOM      3  C   LIG d   1      24.485  -2.548  15.740  0.00  0.00     0.040 C 
ATOM      4  C   LIG d   1      23.745  -1.289  16.187  0.00  0.00     0.030 C 
ATOM      5  C   LIG d   1      24.801  -0.233  16.468  0.00  0.00     0.235 C 
ATOM      6  C   LIG d   1      27.314  -0.139  16.374  0.00  0.00     0.270 C 
ATOM      7  H   LIG d   1      26.152  -1.429  17.441  0.00  0.00     0.280 HD
ENDROOT
BRANCH   2   8
ATOM      8  C   LIG d   1      26.342  -1.830  14.103  0.00  0.00    -0.010 A 
ATOM      9  C   LIG d   1      25.433  -1.194  13.244  0.00  0.00     0.012 A 
ATOM     10  C   LIG d   1      25.781  -0.927  11.922  0.00  0.00     0.020 A 
ATOM     11  C   LIG d   1      27.034  -1.311  11.486  0.00  0.00     0.116 A 
ATOM     12  N   LIG d   1      27.935  -1.930  12.277  0.00  0.00    -0.273 NA
ATOM     13  C   LIG d   1      27.580  -2.162  13.558  0.00  0.00     0.125 A 
ENDBRANCH   2   8
TORSDOF 1
ENDMDL
MODEL 9
REMARK minimizedAffinity -4.02176762REMARK CNNscore 0.580345929REMARK CNNaffinity 3.30413556REMARK  1 active torsions:
REMARK  status: ('A' for Active; 'I' for Inactive)
REMARK    1  A    between atoms: C_3  and  C_7 
ROOT
ATOM      1  N   LIG d   1      10.410   3.206 -19.983  0.00  0.00    -0.067 N 
ATOM      2  C   LIG d   1       9.360   3.423 -18.903  0.00  0.00     0.222 C 
ATOM      3  C   LIG d   1      10.118   4.313 -17.913  0.00  0.00     0.040 C 
ATOM      4  C   LIG d   1      11.137   5.106 -18.728  0.00  0.00     0.030 C 
ATOM      5  C   LIG d   1      11.146   4.509 -20.126  0.00  0.00     0.235 C 
ATOM      6  C   LIG d   1       9.938   2.625 -21.278  0.00  0.00     0.270 C 
ATOM      7  H   LIG d   1      11.080   2.531 -19.593  0.00  0.00     0.280 HD
ENDROOT
BRANCH   2   8
ATOM      8  C   LIG d   1       8.036   3.955 -19.389  0.00  0.00    -0.010 A 
ATOM      9  C   LIG d   1       7.740   5.322 -19.270  0.00  0.00     0.012 A 
ATOM     10  C   LIG d   1       6.506   5.816 -19.690  0.00  0.00     0.020 A 
ATOM     11  C   LIG d   1       5.591   4.925 -20.214  0.00  0.00     0.116 A 
ATOM     12  N   LIG d   1       5.833   3.604 -20.341  0.00  0.00    -0.273 NA
ATOM     13  C   LIG d   1       7.041   3.153 -19.942  0.00  0.00     0.125 A 
ENDBRANCH   2   8
TORSDOF 1
ENDMDL
