MODEL 1
REMARK VINA RESULT:      -5.0      0.000      0.000
REMARK  2 active torsions:
REMARK  status: ('A' for Active; 'I' for Inactive)
REMARK    1  A    between atoms: O_1  and  C_9 
REMARK    2  A    between atoms: N_3  and  C_4 
REMARK       I    between atoms: N_3  and  C_10 
ROOT
ATOM      1  C   LIG d   1       5.699  26.826 -12.515  0.00  0.00     0.034 A 
ATOM      2  C   LIG d   1       6.779  26.031 -12.123  0.00  0.00     0.032 A 
ATOM      3  C   LIG d   1       5.067  27.628 -11.555  0.00  0.00     0.032 A 
ATOM      4  C   LIG d   1       7.224  26.037 -10.796  0.00  0.00     0.039 A 
ATOM      5  C   LIG d   1       5.509  27.637 -10.230  0.00  0.00     0.039 A 
ATOM      6  C   LIG d   1       6.584  26.841  -9.861  0.00  0.00     0.065 A 
ENDROOT
BRANCH   1   7
ATOM      7  N   LIG d   1       5.194  26.877 -13.830  0.00  0.00    -0.328 N 
ATOM      8  C   LIG d   1       5.543  27.763 -14.833  0.00  0.00     0.218 C 
ATOM      9  O   LIG d   1       6.363  28.671 -14.769  0.00  0.00    -0.274 OA
ATOM     10  C   LIG d   1       4.775  27.500 -16.104  0.00  0.00     0.117 C 
ATOM     11  H   LIG d   1       4.494  26.184 -14.062  0.00  0.00     0.169 HD
ENDBRANCH   1   7
BRANCH   6  12
ATOM     12  O   LIG d   1       6.985  26.877  -8.558  0.00  0.00    -0.361 OA
ATOM     13  H   LIG d   1       6.341  27.401  -8.053  0.00  0.00     0.217 HD
ENDBRANCH   6  12
TORSDOF 2
ENDMDL
MODEL 2
REMARK VINA RESULT:      -5.0     24.495     25.237
REMARK  2 active torsions:
REMARK  status: ('A' for Active; 'I' for Inactive)
REMARK    1  A    between atoms: O_1  and  C_9 
REMARK    2  A    between atoms: N_3  and  C_4 
REMARK       I    between atoms: N_3  and  C_10 
ROOT
ATOM      1  C   LIG d   1      19.249   7.537  -3.811  0.00  0.00     0.034 A 
ATOM      2  C   LIG d   1      20.234   7.354  -4.785  0.00  0.00     0.032 A 
ATOM      3  C   LIG d   1      17.960   7.041  -4.049  0.00  0.00     0.032 A 
ATOM      4  C   LIG d   1      19.938   6.685  -5.979  0.00  0.00     0.039 A 
ATOM      5  C   LIG d   1      17.663   6.373  -5.240  0.00  0.00     0.039 A 
ATOM      6  C   LIG d   1      18.654   6.200  -6.196  0.00  0.00     0.065 A 
ENDROOT
BRANCH   1   7
ATOM      7  N   LIG d   1      19.468   8.196  -2.584  0.00  0.00    -0.328 N 
ATOM      8  C   LIG d   1      19.765   9.533  -2.387  0.00  0.00     0.218 C 
ATOM      9  O   LIG d   1      19.892  10.399  -3.244  0.00  0.00    -0.274 OA
ATOM     10  C   LIG d   1      19.935   9.859  -0.924  0.00  0.00     0.117 C 
ATOM     11  H   LIG d   1      19.399   7.621  -1.755  0.00  0.00     0.169 HD
ENDBRANCH   1   7
BRANCH   6  12
ATOM     12  O   LIG d   1      18.324   5.544  -7.343  0.00  0.00    -0.361 OA
ATOM     13  H   LIG d   1      18.476   6.141  -8.094  0.00  0.00     0.217 HD
ENDBRANCH   6  12
TORSDOF 2
ENDMDL
MODEL 3
REMARK VINA RESULT:      -4.9     25.159     26.188
REMARK  2 active torsions:
REMARK  status: ('A' for Active; 'I' for Inactive)
REMARK    1  A    between atoms: O_1  and  C_9 
REMARK    2  A    between atoms: N_3  and  C_4 
REMARK       I    between atoms: N_3  and  C_10 
ROOT
ATOM      1  C   LIG d   1      18.760   6.534  -3.577  0.00  0.00     0.034 A 
ATOM      2  C   LIG d   1      19.141   5.228  -3.259  0.00  0.00     0.032 A 
ATOM      3  C   LIG d   1      17.871   6.740  -4.641  0.00  0.00     0.032 A 
ATOM      4  C   LIG d   1      18.642   4.143  -3.989  0.00  0.00     0.039 A 
ATOM      5  C   LIG d   1      17.372   5.658  -5.371  0.00  0.00     0.039 A 
ATOM      6  C   LIG d   1      17.761   4.369  -5.040  0.00  0.00     0.065 A 
ENDROOT
BRANCH   1   7
ATOM      7  N   LIG d   1      19.215   7.678  -2.889  0.00  0.00    -0.328 N 
ATOM      8  C   LIG d   1      20.392   8.374  -3.097  0.00  0.00     0.218 C 
ATOM      9  O   LIG d   1      21.263   8.128  -3.924  0.00  0.00    -0.274 OA
ATOM     10  C   LIG d   1      20.526   9.542  -2.154  0.00  0.00     0.117 C 
ATOM     11  H   LIG d   1      18.607   8.025  -2.159  0.00  0.00     0.169 HD
ENDBRANCH   1   7
BRANCH   6  12
ATOM     12  O   LIG d   1      17.253   3.341  -5.777  0.00  0.00    -0.361 OA
ATOM     13  H   LIG d   1      16.300   3.491  -5.897  0.00  0.00     0.217 HD
ENDBRANCH   6  12
TORSDOF 2
ENDMDL
MODEL 4
REMARK VINA RESULT:      -4.7      2.692      3.674
REMARK  2 active torsions:
REMARK  status: ('A' for Active; 'I' for Inactive)
REMARK    1  A    between atoms: O_1  and  C_9 
REMARK    2  A    between atoms: N_3  and  C_4 
REMARK       I    between atoms: N_3  and  C_10 
ROOT
ATOM      1  C   LIG d   1       5.783  28.129 -11.215  0.00  0.00     0.034 A 
ATOM      2  C   LIG d   1       6.125  27.690 -12.497  0.00  0.00     0.032 A 
ATOM      3  C   LIG d   1       6.227  27.393 -10.107  0.00  0.00     0.032 A 
ATOM      4  C   LIG d   1       6.898  26.537 -12.673  0.00  0.00     0.039 A 
ATOM      5  C   LIG d   1       6.999  26.241 -10.280  0.00  0.00     0.039 A 
ATOM      6  C   LIG d   1       7.328  25.822 -11.561  0.00  0.00     0.065 A 
ENDROOT
BRANCH   1   7
ATOM      7  N   LIG d   1       5.011  29.280 -10.955  0.00  0.00    -0.328 N 
ATOM      8  C   LIG d   1       5.468  30.556 -10.677  0.00  0.00     0.218 C 
ATOM      9  O   LIG d   1       6.634  30.928 -10.608  0.00  0.00    -0.274 OA
ATOM     10  C   LIG d   1       4.331  31.520 -10.449  0.00  0.00     0.117 C 
ATOM     11  H   LIG d   1       4.008  29.153 -10.974  0.00  0.00     0.169 HD
ENDBRANCH   1   7
BRANCH   6  12
ATOM     12  O   LIG d   1       8.083  24.694 -11.687  0.00  0.00    -0.361 OA
ATOM     13  H   LIG d   1       7.549  24.015 -12.132  0.00  0.00     0.217 HD
ENDBRANCH   6  12
TORSDOF 2
ENDMDL
MODEL 5
REMARK VINA RESULT:      -4.5     24.100     25.207
REMARK  2 active torsions:
REMARK  status: ('A' for Active; 'I' for Inactive)
REMARK    1  A    between atoms: O_1  and  C_9 
REMARK    2  A    between atoms: N_3  and  C_4 
REMARK       I    between atoms: N_3  and  C_10 
ROOT
ATOM      1  C   LIG d   1      20.234   8.978  -2.512  0.00  0.00     0.034 A 
ATOM      2  C   LIG d   1      19.710  10.266  -2.654  0.00  0.00     0.032 A 
ATOM      3  C   LIG d   1      21.553   8.830  -2.061  0.00  0.00     0.032 A 
ATOM      4  C   LIG d   1      20.488  11.389  -2.349  0.00  0.00     0.039 A 
ATOM      5  C   LIG d   1      22.332   9.950  -1.756  0.00  0.00     0.039 A 
ATOM      6  C   LIG d   1      21.794  11.220  -1.903  0.00  0.00     0.065 A 
ENDROOT
BRANCH   1   7
ATOM      7  N   LIG d   1      19.515   7.799  -2.795  0.00  0.00    -0.328 N 
ATOM      8  C   LIG d   1      19.450   7.120  -3.999  0.00  0.00     0.218 C 
ATOM      9  O   LIG d   1      20.010   7.415  -5.049  0.00  0.00    -0.274 OA
ATOM     10  C   LIG d   1      18.568   5.900  -3.907  0.00  0.00     0.117 C 
ATOM     11  H   LIG d   1      18.986   7.409  -2.027  0.00  0.00     0.169 HD
ENDBRANCH   1   7
BRANCH   6  12
ATOM     12  O   LIG d   1      22.586  12.286  -1.596  0.00  0.00    -0.361 OA
ATOM     13  H   LIG d   1      23.356  12.278  -2.188  0.00  0.00     0.217 HD
ENDBRANCH   6  12
TORSDOF 2
ENDMDL
MODEL 6
REMARK VINA RESULT:      -4.5     11.024     13.575
REMARK  2 active torsions:
REMARK  status: ('A' for Active; 'I' for Inactive)
REMARK    1  A    between atoms: O_1  and  C_9 
REMARK    2  A    between atoms: N_3  and  C_4 
REMARK       I    between atoms: N_3  and  C_10 
ROOT
ATOM      1  C   LIG d   1       8.117  21.363  -0.706  0.00  0.00     0.034 A 
ATOM      2  C   LIG d   1       8.920  22.348  -1.286  0.00  0.00     0.032 A 
ATOM      3  C   LIG d   1       6.832  21.148  -1.221  0.00  0.00     0.032 A 
ATOM      4  C   LIG d   1       8.450  23.107  -2.364  0.00  0.00     0.039 A 
ATOM      5  C   LIG d   1       6.360  21.904  -2.297  0.00  0.00     0.039 A 
ATOM      6  C   LIG d   1       7.172  22.878  -2.860  0.00  0.00     0.065 A 
ENDROOT
BRANCH   1   7
ATOM      7  N   LIG d   1       8.519  20.556   0.378  0.00  0.00    -0.328 N 
ATOM      8  C   LIG d   1       9.153  19.327   0.326  0.00  0.00     0.218 C 
ATOM      9  O   LIG d   1       9.489  18.708  -0.677  0.00  0.00    -0.274 OA
ATOM     10  C   LIG d   1       9.413  18.772   1.704  0.00  0.00     0.117 C 
ATOM     11  H   LIG d   1       8.317  20.922   1.300  0.00  0.00     0.169 HD
ENDBRANCH   1   7
BRANCH   6  12
ATOM     12  O   LIG d   1       6.675  23.594  -3.908  0.00  0.00    -0.361 OA
ATOM     13  H   LIG d   1       5.862  23.161  -4.218  0.00  0.00     0.217 HD
ENDBRANCH   6  12
TORSDOF 2
ENDMDL
MODEL 7
REMARK VINA RESULT:      -4.5      2.419      2.968
REMARK  2 active torsions:
REMARK  status: ('A' for Active; 'I' for Inactive)
REMARK    1  A    between atoms: O_1  and  C_9 
REMARK    2  A    between atoms: N_3  and  C_4 
REMARK       I    between atoms: N_3  and  C_10 
ROOT
ATOM      1  C   LIG d   1       5.599  28.050 -12.050  0.00  0.00     0.034 A 
ATOM      2  C   LIG d   1       5.493  27.191 -10.953  0.00  0.00     0.032 A 
ATOM      3  C   LIG d   1       6.580  27.796 -13.018  0.00  0.00     0.032 A 
ATOM      4  C   LIG d   1       6.353  26.094 -10.823  0.00  0.00     0.039 A 
ATOM      5  C   LIG d   1       7.439  26.700 -12.890  0.00  0.00     0.039 A 
ATOM      6  C   LIG d   1       7.319  25.859 -11.794  0.00  0.00     0.065 A 
ENDROOT
BRANCH   1   7
ATOM      7  N   LIG d   1       4.771  29.173 -12.254  0.00  0.00    -0.328 N 
ATOM      8  C   LIG d   1       3.582  29.227 -12.959  0.00  0.00     0.218 C 
ATOM      9  O   LIG d   1       3.020  28.304 -13.539  0.00  0.00    -0.274 OA
ATOM     10  C   LIG d   1       2.992  30.615 -12.957  0.00  0.00     0.117 C 
ATOM     11  H   LIG d   1       5.087  30.037 -11.835  0.00  0.00     0.169 HD
ENDBRANCH   1   7
BRANCH   6  12
ATOM     12  O   LIG d   1       8.175  24.802 -11.706  0.00  0.00    -0.361 OA
ATOM     13  H   LIG d   1       9.008  25.043 -12.145  0.00  0.00     0.217 HD
ENDBRANCH   6  12
TORSDOF 2
ENDMDL
MODEL 8
REMARK VINA RESULT:      -4.4     31.849     33.264
REMARK  2 active torsions:
REMARK  status: ('A' for Active; 'I' for Inactive)
REMARK    1  A    between atoms: O_1  and  C_9 
REMARK    2  A    between atoms: N_3  and  C_4 
REMARK       I    between atoms: N_3  and  C_10 
ROOT
ATOM      1  C   LIG d   1      15.207  -3.901  -5.927  0.00  0.00     0.034 A 
ATOM      2  C   LIG d   1      14.124  -4.585  -6.485  0.00  0.00     0.032 A 
ATOM      3  C   LIG d   1      15.995  -4.550  -4.967  0.00  0.00     0.032 A 
ATOM      4  C   LIG d   1      13.831  -5.896  -6.093  0.00  0.00     0.039 A 
ATOM      5  C   LIG d   1      15.705  -5.859  -4.574  0.00  0.00     0.039 A 
ATOM      6  C   LIG d   1      14.625  -6.522  -5.140  0.00  0.00     0.065 A 
ENDROOT
BRANCH   1   7
ATOM      7  N   LIG d   1      15.567  -2.582  -6.271  0.00  0.00    -0.328 N 
ATOM      8  C   LIG d   1      14.800  -1.437  -6.141  0.00  0.00     0.218 C 
ATOM      9  O   LIG d   1      13.660  -1.354  -5.700  0.00  0.00    -0.274 OA
ATOM     10  C   LIG d   1      15.536  -0.213  -6.626  0.00  0.00     0.117 C 
ATOM     11  H   LIG d   1      16.495  -2.463  -6.656  0.00  0.00     0.169 HD
ENDBRANCH   1   7
BRANCH   6  12
ATOM     12  O   LIG d   1      14.376  -7.797  -4.730  0.00  0.00    -0.361 OA
ATOM     13  H   LIG d   1      14.391  -7.817  -3.759  0.00  0.00     0.217 HD
ENDBRANCH   6  12
TORSDOF 2
ENDMDL
MODEL 9
REMARK VINA RESULT:      -4.4     46.728     48.548
REMARK  2 active torsions:
REMARK  status: ('A' for Active; 'I' for Inactive)
REMARK    1  A    between atoms: O_1  and  C_9 
REMARK    2  A    between atoms: N_3  and  C_4 
REMARK       I    between atoms: N_3  and  C_10 
ROOT
ATOM      1  C   LIG d   1      22.885  -0.979  22.906  0.00  0.00     0.034 A 
ATOM      2  C   LIG d   1      23.282   0.214  23.516  0.00  0.00     0.032 A 
ATOM      3  C   LIG d   1      22.424  -2.030  23.711  0.00  0.00     0.032 A 
ATOM      4  C   LIG d   1      23.219   0.358  24.906  0.00  0.00     0.039 A 
ATOM      5  C   LIG d   1      22.360  -1.888  25.100  0.00  0.00     0.039 A 
ATOM      6  C   LIG d   1      22.758  -0.696  25.686  0.00  0.00     0.065 A 
ENDROOT
BRANCH   1   7
ATOM      7  N   LIG d   1      22.917  -1.201  21.514  0.00  0.00    -0.328 N 
ATOM      8  C   LIG d   1      24.024  -1.466  20.727  0.00  0.00     0.218 C 
ATOM      9  O   LIG d   1      25.189  -1.560  21.094  0.00  0.00    -0.274 OA
ATOM     10  C   LIG d   1      23.651  -1.639  19.276  0.00  0.00     0.117 C 
ATOM     11  H   LIG d   1      22.024  -1.162  21.040  0.00  0.00     0.169 HD
ENDBRANCH   1   7
BRANCH   6  12
ATOM     12  O   LIG d   1      22.681  -0.597  27.044  0.00  0.00    -0.361 OA
ATOM     13  H   LIG d   1      23.220   0.160  27.329  0.00  0.00     0.217 HD
ENDBRANCH   6  12
TORSDOF 2
ENDMDL
