MODEL 1
REMARK VINA RESULT:      -8.8      0.000      0.000
REMARK  11 active torsions:
REMARK  status: ('A' for Active; 'I' for Inactive)
REMARK    1  A    between atoms: O_2  and  C_17 
REMARK    2  A    between atoms: O_2  and  C_19 
REMARK    3  A    between atoms: O_3  and  C_13 
REMARK    4  A    between atoms: O_4  and  C_14 
REMARK    5  A    between atoms: O_5  and  C_15 
REMARK    6  A    between atoms: O_6  and  C_18 
REMARK    7  A    between atoms: O_8  and  C_21 
REMARK    8  A    between atoms: O_11  and  C_30 
REMARK    9  A    between atoms: O_12  and  C_33 
REMARK   10  A    between atoms: C_16  and  C_18 
REMARK   11  A    between atoms: C_22  and  C_25 
ROOT
ATOM      1  C   UNK d   1      10.269  -1.134  23.261  0.00  0.00     0.106 A 
ATOM      2  C   UNK d   1       9.591  -2.204  23.877  0.00  0.00     0.054 A 
ATOM      3  C   UNK d   1      10.810  -0.111  24.059  0.00  0.00     0.101 A 
ATOM      4  C   UNK d   1       9.385  -2.260  25.269  0.00  0.00     0.001 A 
ATOM      5  C   UNK d   1      10.633  -0.164  25.442  0.00  0.00     0.040 A 
ATOM      6  C   UNK d   1       9.924  -1.216  26.033  0.00  0.00     0.017 A 
ENDROOT
BRANCH   1   7
ATOM      7  O   UNK d   1      10.443  -1.000  21.901  0.00  0.00    -0.315 OA
BRANCH   7   8
ATOM      8  C   UNK d   1       9.309  -1.215  21.056  0.00  0.00     0.299 C 
ATOM      9  O   UNK d   1       9.407  -2.503  20.442  0.00  0.00    -0.340 OA
ATOM     10  C   UNK d   1       8.294  -2.844  19.626  0.00  0.00     0.253 C 
ATOM     11  C   UNK d   1       8.145  -1.843  18.478  0.00  0.00     0.189 C 
ATOM     12  C   UNK d   1       8.083  -0.418  19.032  0.00  0.00     0.183 C 
ATOM     13  C   UNK d   1       9.262  -0.122  19.965  0.00  0.00     0.205 C 
BRANCH  10  14
ATOM     14  C   UNK d   1       8.452  -4.261  19.048  0.00  0.00     0.172 C 
ATOM     15  O   UNK d   1       7.967  -5.275  19.525  0.00  0.00    -0.648 OA
BRANCH  14  16
ATOM     16  O   UNK d   1       9.156  -4.293  17.886  0.00  0.00    -0.774 OA
ATOM     17  H   UNK d   1       9.055  -3.463  17.362  0.00  0.00     0.167 HD
ENDBRANCH  14  16
ENDBRANCH  10  14
BRANCH  11  18
ATOM     18  O   UNK d   1       6.929  -2.109  17.751  0.00  0.00    -0.390 OA
ATOM     19  H   UNK d   1       7.214  -2.513  16.904  0.00  0.00     0.210 HD
ENDBRANCH  11  18
BRANCH  12  20
ATOM     20  O   UNK d   1       8.071   0.517  17.941  0.00  0.00    -0.390 OA
ATOM     21  H   UNK d   1       8.450   1.352  18.273  0.00  0.00     0.210 HD
ENDBRANCH  12  20
BRANCH  13  22
ATOM     22  O   UNK d   1       9.048   1.182  20.530  0.00  0.00    -0.388 OA
ATOM     23  H   UNK d   1       8.445   1.640  19.914  0.00  0.00     0.210 HD
ENDBRANCH  13  22
ENDBRANCH   7   8
ENDBRANCH   1   7
BRANCH   3  24
ATOM     24  O   UNK d   1      11.482   0.894  23.409  0.00  0.00    -0.353 OA
ATOM     25  C   UNK d   1      10.895   2.190  23.434  0.00  0.00     0.210 C 
ENDBRANCH   3  24
BRANCH   4  26
ATOM     26  C   UNK d   1       8.605  -3.380  25.879  0.00  0.00     0.090 A 
ATOM     27  O   UNK d   1       7.808  -4.088  24.986  0.00  0.00    -0.309 OA
ATOM     28  C   UNK d   1       7.049  -5.135  25.452  0.00  0.00     0.095 A 
ATOM     29  C   UNK d   1       7.015  -5.525  26.793  0.00  0.00     0.081 A 
ATOM     30  C   UNK d   1       6.284  -5.817  24.503  0.00  0.00     0.075 A 
ATOM     31  C   UNK d   1       7.844  -4.763  27.747  0.00  0.00     0.190 A 
ATOM     32  C   UNK d   1       6.209  -6.608  27.176  0.00  0.00     0.085 A 
ATOM     33  O   UNK d   1       7.896  -4.976  28.951  0.00  0.00    -0.287 OA
ATOM     34  C   UNK d   1       8.653  -3.668  27.187  0.00  0.00     0.094 A 
ATOM     35  C   UNK d   1       5.443  -7.293  26.229  0.00  0.00     0.074 A 
ATOM     36  C   UNK d   1       5.489  -6.887  24.898  0.00  0.00     0.071 A 
BRANCH  32  37
ATOM     37  O   UNK d   1       6.156  -7.011  28.480  0.00  0.00    -0.360 OA
ATOM     38  H   UNK d   1       6.338  -7.959  28.560  0.00  0.00     0.217 HD
ENDBRANCH  32  37
BRANCH  36  39
ATOM     39  O   UNK d   1       4.759  -7.523  23.938  0.00  0.00    -0.361 OA
ATOM     40  H   UNK d   1       4.717  -6.965  23.144  0.00  0.00     0.217 HD
ENDBRANCH  36  39
ENDBRANCH   4  26
TORSDOF 11
ENDMDL
MODEL 2
REMARK VINA RESULT:      -8.3     25.632     31.573
REMARK  11 active torsions:
REMARK  status: ('A' for Active; 'I' for Inactive)
REMARK    1  A    between atoms: O_2  and  C_17 
REMARK    2  A    between atoms: O_2  and  C_19 
REMARK    3  A    between atoms: O_3  and  C_13 
REMARK    4  A    between atoms: O_4  and  C_14 
REMARK    5  A    between atoms: O_5  and  C_15 
REMARK    6  A    between atoms: O_6  and  C_18 
REMARK    7  A    between atoms: O_8  and  C_21 
REMARK    8  A    between atoms: O_11  and  C_30 
REMARK    9  A    between atoms: O_12  and  C_33 
REMARK   10  A    between atoms: C_16  and  C_18 
REMARK   11  A    between atoms: C_22  and  C_25 
ROOT
ATOM      1  C   UNK d   1       9.764  16.590   2.308  0.00  0.00     0.106 A 
ATOM      2  C   UNK d   1       9.948  17.856   1.717  0.00  0.00     0.054 A 
ATOM      3  C   UNK d   1       8.493  15.991   2.270  0.00  0.00     0.101 A 
ATOM      4  C   UNK d   1       8.886  18.573   1.133  0.00  0.00     0.001 A 
ATOM      5  C   UNK d   1       7.436  16.680   1.675  0.00  0.00     0.040 A 
ATOM      6  C   UNK d   1       7.630  17.953   1.126  0.00  0.00     0.017 A 
ENDROOT
BRANCH   1   7
ATOM      7  O   UNK d   1      10.754  15.876   2.947  0.00  0.00    -0.315 OA
BRANCH   7   8
ATOM      8  C   UNK d   1      11.174  16.320   4.240  0.00  0.00     0.299 C 
ATOM      9  O   UNK d   1      12.399  17.048   4.121  0.00  0.00    -0.340 OA
ATOM     10  C   UNK d   1      12.874  17.589   5.346  0.00  0.00     0.253 C 
ATOM     11  C   UNK d   1      13.145  16.473   6.357  0.00  0.00     0.189 C 
ATOM     12  C   UNK d   1      11.901  15.599   6.517  0.00  0.00     0.183 C 
ATOM     13  C   UNK d   1      11.381  15.100   5.164  0.00  0.00     0.205 C 
BRANCH  10  14
ATOM     14  C   UNK d   1      14.163  18.400   5.125  0.00  0.00     0.172 C 
ATOM     15  O   UNK d   1      14.748  19.043   5.982  0.00  0.00    -0.648 OA
BRANCH  14  16
ATOM     16  O   UNK d   1      14.652  18.297   3.860  0.00  0.00    -0.774 OA
ATOM     17  H   UNK d   1      13.971  18.497   3.176  0.00  0.00     0.167 HD
ENDBRANCH  14  16
ENDBRANCH  10  14
BRANCH  11  18
ATOM     18  O   UNK d   1      13.478  17.042   7.639  0.00  0.00    -0.390 OA
ATOM     19  H   UNK d   1      13.031  17.915   7.662  0.00  0.00     0.210 HD
ENDBRANCH  11  18
BRANCH  12  20
ATOM     20  O   UNK d   1      12.208  14.483   7.369  0.00  0.00    -0.390 OA
ATOM     21  H   UNK d   1      12.844  14.798   8.037  0.00  0.00     0.210 HD
ENDBRANCH  12  20
BRANCH  13  22
ATOM     22  O   UNK d   1      10.149  14.402   5.406  0.00  0.00    -0.388 OA
ATOM     23  H   UNK d   1       9.863  14.673   6.299  0.00  0.00     0.210 HD
ENDBRANCH  13  22
ENDBRANCH   7   8
ENDBRANCH   1   7
BRANCH   3  24
ATOM     24  O   UNK d   1       8.376  14.747   2.839  0.00  0.00    -0.353 OA
ATOM     25  C   UNK d   1       7.804  13.719   2.039  0.00  0.00     0.210 C 
ENDBRANCH   3  24
BRANCH   4  26
ATOM     26  C   UNK d   1       9.108  19.941   0.572  0.00  0.00     0.090 A 
ATOM     27  O   UNK d   1       8.030  20.461  -0.136  0.00  0.00    -0.309 OA
ATOM     28  C   UNK d   1       8.139  21.713  -0.694  0.00  0.00     0.095 A 
ATOM     29  C   UNK d   1       9.291  22.498  -0.608  0.00  0.00     0.081 A 
ATOM     30  C   UNK d   1       7.016  22.186  -1.377  0.00  0.00     0.075 A 
ATOM     31  C   UNK d   1      10.444  21.940   0.125  0.00  0.00     0.190 A 
ATOM     32  C   UNK d   1       9.309  23.765  -1.210  0.00  0.00     0.085 A 
ATOM     33  O   UNK d   1      11.522  22.503   0.262  0.00  0.00    -0.287 OA
ATOM     34  C   UNK d   1      10.261  20.607   0.721  0.00  0.00     0.094 A 
ATOM     35  C   UNK d   1       8.187  24.242  -1.894  0.00  0.00     0.074 A 
ATOM     36  C   UNK d   1       7.049  23.443  -1.970  0.00  0.00     0.071 A 
BRANCH  32  37
ATOM     37  O   UNK d   1      10.422  24.554  -1.142  0.00  0.00    -0.360 OA
ATOM     38  H   UNK d   1      11.222  24.020  -1.027  0.00  0.00     0.217 HD
ENDBRANCH  32  37
BRANCH  36  39
ATOM     39  O   UNK d   1       5.932  23.864  -2.628  0.00  0.00    -0.361 OA
ATOM     40  H   UNK d   1       6.182  24.520  -3.300  0.00  0.00     0.217 HD
ENDBRANCH  36  39
ENDBRANCH   4  26
TORSDOF 11
ENDMDL
MODEL 3
REMARK VINA RESULT:      -8.1      1.486      2.856
REMARK  11 active torsions:
REMARK  status: ('A' for Active; 'I' for Inactive)
REMARK    1  A    between atoms: O_2  and  C_17 
REMARK    2  A    between atoms: O_2  and  C_19 
REMARK    3  A    between atoms: O_3  and  C_13 
REMARK    4  A    between atoms: O_4  and  C_14 
REMARK    5  A    between atoms: O_5  and  C_15 
REMARK    6  A    between atoms: O_6  and  C_18 
REMARK    7  A    between atoms: O_8  and  C_21 
REMARK    8  A    between atoms: O_11  and  C_30 
REMARK    9  A    between atoms: O_12  and  C_33 
REMARK   10  A    between atoms: C_16  and  C_18 
REMARK   11  A    between atoms: C_22  and  C_25 
ROOT
ATOM      1  C   UNK d   1      10.351  -1.229  22.349  0.00  0.00     0.106 A 
ATOM      2  C   UNK d   1       9.679  -2.298  22.971  0.00  0.00     0.054 A 
ATOM      3  C   UNK d   1      10.911  -0.212  23.142  0.00  0.00     0.101 A 
ATOM      4  C   UNK d   1       9.496  -2.360  24.366  0.00  0.00     0.001 A 
ATOM      5  C   UNK d   1      10.759  -0.272  24.528  0.00  0.00     0.040 A 
ATOM      6  C   UNK d   1      10.054  -1.323  25.126  0.00  0.00     0.017 A 
ENDROOT
BRANCH   1   7
ATOM      7  O   UNK d   1      10.502  -1.088  20.986  0.00  0.00    -0.315 OA
BRANCH   7   8
ATOM      8  C   UNK d   1       9.403  -0.554  20.242  0.00  0.00     0.299 C 
ATOM      9  O   UNK d   1       8.649   0.333  21.072  0.00  0.00    -0.340 OA
ATOM     10  C   UNK d   1       7.566   0.969  20.408  0.00  0.00     0.253 C 
ATOM     11  C   UNK d   1       6.569  -0.070  19.891  0.00  0.00     0.189 C 
ATOM     12  C   UNK d   1       7.293  -1.104  19.027  0.00  0.00     0.183 C 
ATOM     13  C   UNK d   1       8.498  -1.708  19.756  0.00  0.00     0.205 C 
BRANCH  10  14
ATOM     14  C   UNK d   1       6.841   1.945  21.352  0.00  0.00     0.172 C 
ATOM     15  O   UNK d   1       5.659   2.243  21.285  0.00  0.00    -0.648 OA
BRANCH  14  16
ATOM     16  O   UNK d   1       7.638   2.427  22.342  0.00  0.00    -0.774 OA
ATOM     17  H   UNK d   1       8.238   1.736  22.712  0.00  0.00     0.167 HD
ENDBRANCH  14  16
ENDBRANCH  10  14
BRANCH  11  18
ATOM     18  O   UNK d   1       5.559   0.575  19.090  0.00  0.00    -0.390 OA
ATOM     19  H   UNK d   1       6.023   1.297  18.615  0.00  0.00     0.210 HD
ENDBRANCH  11  18
BRANCH  12  20
ATOM     20  O   UNK d   1       6.372  -2.142  18.653  0.00  0.00    -0.390 OA
ATOM     21  H   UNK d   1       5.660  -1.723  18.136  0.00  0.00     0.210 HD
ENDBRANCH  12  20
BRANCH  13  22
ATOM     22  O   UNK d   1       9.181  -2.564  18.826  0.00  0.00    -0.388 OA
ATOM     23  H   UNK d   1       9.935  -2.041  18.491  0.00  0.00     0.210 HD
ENDBRANCH  13  22
ENDBRANCH   7   8
ENDBRANCH   1   7
BRANCH   3  24
ATOM     24  O   UNK d   1      11.577   0.793  22.486  0.00  0.00    -0.353 OA
ATOM     25  C   UNK d   1      12.840   1.186  23.011  0.00  0.00     0.210 C 
ENDBRANCH   3  24
BRANCH   4  26
ATOM     26  C   UNK d   1       8.722  -3.479  24.984  0.00  0.00     0.090 A 
ATOM     27  O   UNK d   1       7.721  -4.010  24.176  0.00  0.00    -0.309 OA
ATOM     28  C   UNK d   1       6.950  -5.041  24.658  0.00  0.00     0.095 A 
ATOM     29  C   UNK d   1       7.101  -5.585  25.935  0.00  0.00     0.081 A 
ATOM     30  C   UNK d   1       5.975  -5.542  23.792  0.00  0.00     0.075 A 
ATOM     31  C   UNK d   1       8.147  -5.011  26.803  0.00  0.00     0.190 A 
ATOM     32  C   UNK d   1       6.266  -6.637  26.340  0.00  0.00     0.085 A 
ATOM     33  O   UNK d   1       8.378  -5.369  27.950  0.00  0.00    -0.287 OA
ATOM     34  C   UNK d   1       8.957  -3.925  26.226  0.00  0.00     0.094 A 
ATOM     35  C   UNK d   1       5.290  -7.141  25.476  0.00  0.00     0.074 A 
ATOM     36  C   UNK d   1       5.155  -6.585  24.207  0.00  0.00     0.071 A 
BRANCH  32  37
ATOM     37  O   UNK d   1       6.391  -7.188  27.583  0.00  0.00    -0.360 OA
ATOM     38  H   UNK d   1       6.341  -6.509  28.273  0.00  0.00     0.217 HD
ENDBRANCH  32  37
BRANCH  36  39
ATOM     39  O   UNK d   1       4.216  -7.041  23.331  0.00  0.00    -0.361 OA
ATOM     40  H   UNK d   1       4.604  -7.092  22.441  0.00  0.00     0.217 HD
ENDBRANCH  36  39
ENDBRANCH   4  26
TORSDOF 11
ENDMDL
MODEL 4
REMARK VINA RESULT:      -8.0      1.578      3.485
REMARK  11 active torsions:
REMARK  status: ('A' for Active; 'I' for Inactive)
REMARK    1  A    between atoms: O_2  and  C_17 
REMARK    2  A    between atoms: O_2  and  C_19 
REMARK    3  A    between atoms: O_3  and  C_13 
REMARK    4  A    between atoms: O_4  and  C_14 
REMARK    5  A    between atoms: O_5  and  C_15 
REMARK    6  A    between atoms: O_6  and  C_18 
REMARK    7  A    between atoms: O_8  and  C_21 
REMARK    8  A    between atoms: O_11  and  C_30 
REMARK    9  A    between atoms: O_12  and  C_33 
REMARK   10  A    between atoms: C_16  and  C_18 
REMARK   11  A    between atoms: C_22  and  C_25 
ROOT
ATOM      1  C   UNK d   1      10.256  -1.418  22.470  0.00  0.00     0.106 A 
ATOM      2  C   UNK d   1       9.497  -2.449  23.058  0.00  0.00     0.054 A 
ATOM      3  C   UNK d   1      10.850  -0.446  23.293  0.00  0.00     0.101 A 
ATOM      4  C   UNK d   1       9.264  -2.512  24.445  0.00  0.00     0.001 A 
ATOM      5  C   UNK d   1      10.647  -0.508  24.673  0.00  0.00     0.040 A 
ATOM      6  C   UNK d   1       9.859  -1.519  25.235  0.00  0.00     0.017 A 
ENDROOT
BRANCH   1   7
ATOM      7  O   UNK d   1      10.461  -1.275  21.116  0.00  0.00    -0.315 OA
BRANCH   7   8
ATOM      8  C   UNK d   1       9.408  -0.703  20.334  0.00  0.00     0.299 C 
ATOM      9  O   UNK d   1       8.651   0.202  21.142  0.00  0.00    -0.340 OA
ATOM     10  C   UNK d   1       7.612   0.874  20.442  0.00  0.00     0.253 C 
ATOM     11  C   UNK d   1       6.605  -0.131  19.881  0.00  0.00     0.189 C 
ATOM     12  C   UNK d   1       7.329  -1.181  19.038  0.00  0.00     0.183 C 
ATOM     13  C   UNK d   1       8.487  -1.826  19.807  0.00  0.00     0.205 C 
BRANCH  10  14
ATOM     14  C   UNK d   1       6.882   1.866  21.365  0.00  0.00     0.172 C 
ATOM     15  O   UNK d   1       6.981   1.902  22.581  0.00  0.00    -0.648 OA
BRANCH  14  16
ATOM     16  O   UNK d   1       6.128   2.774  20.689  0.00  0.00    -0.774 OA
ATOM     17  H   UNK d   1       6.041   2.552  19.732  0.00  0.00     0.167 HD
ENDBRANCH  14  16
ENDBRANCH  10  14
BRANCH  11  18
ATOM     18  O   UNK d   1       5.645   0.549  19.047  0.00  0.00    -0.390 OA
ATOM     19  H   UNK d   1       6.168   1.181  18.509  0.00  0.00     0.210 HD
ENDBRANCH  11  18
BRANCH  12  20
ATOM     20  O   UNK d   1       6.392  -2.189  18.623  0.00  0.00    -0.390 OA
ATOM     21  H   UNK d   1       6.378  -2.186  17.648  0.00  0.00     0.210 HD
ENDBRANCH  12  20
BRANCH  13  22
ATOM     22  O   UNK d   1       9.179  -2.697  18.897  0.00  0.00    -0.388 OA
ATOM     23  H   UNK d   1       9.197  -3.570  19.331  0.00  0.00     0.210 HD
ENDBRANCH  13  22
ENDBRANCH   7   8
ENDBRANCH   1   7
BRANCH   3  24
ATOM     24  O   UNK d   1      11.599   0.522  22.671  0.00  0.00    -0.353 OA
ATOM     25  C   UNK d   1      11.555   1.833  23.223  0.00  0.00     0.210 C 
ENDBRANCH   3  24
BRANCH   4  26
ATOM     26  C   UNK d   1       8.401  -3.586  25.024  0.00  0.00     0.090 A 
ATOM     27  O   UNK d   1       8.655  -3.881  26.360  0.00  0.00    -0.309 OA
ATOM     28  C   UNK d   1       7.915  -4.858  26.981  0.00  0.00     0.095 A 
ATOM     29  C   UNK d   1       6.921  -5.598  26.338  0.00  0.00     0.081 A 
ATOM     30  C   UNK d   1       8.206  -5.094  28.327  0.00  0.00     0.075 A 
ATOM     31  C   UNK d   1       6.662  -5.303  24.916  0.00  0.00     0.190 A 
ATOM     32  C   UNK d   1       6.216  -6.577  27.055  0.00  0.00     0.085 A 
ATOM     33  O   UNK d   1       5.840  -5.885  24.220  0.00  0.00    -0.287 OA
ATOM     34  C   UNK d   1       7.468  -4.231  24.310  0.00  0.00     0.094 A 
ATOM     35  C   UNK d   1       6.505  -6.815  28.402  0.00  0.00     0.074 A 
ATOM     36  C   UNK d   1       7.501  -6.068  29.024  0.00  0.00     0.071 A 
BRANCH  32  37
ATOM     37  O   UNK d   1       5.239  -7.316  26.452  0.00  0.00    -0.360 OA
ATOM     38  H   UNK d   1       4.420  -7.301  26.970  0.00  0.00     0.217 HD
ENDBRANCH  32  37
BRANCH  36  39
ATOM     39  O   UNK d   1       7.819  -6.266  30.335  0.00  0.00    -0.361 OA
ATOM     40  H   UNK d   1       7.275  -6.987  30.693  0.00  0.00     0.217 HD
ENDBRANCH  36  39
ENDBRANCH   4  26
TORSDOF 11
ENDMDL
MODEL 5
REMARK VINA RESULT:      -7.8     28.433     32.450
REMARK  11 active torsions:
REMARK  status: ('A' for Active; 'I' for Inactive)
REMARK    1  A    between atoms: O_2  and  C_17 
REMARK    2  A    between atoms: O_2  and  C_19 
REMARK    3  A    between atoms: O_3  and  C_13 
REMARK    4  A    between atoms: O_4  and  C_14 
REMARK    5  A    between atoms: O_5  and  C_15 
REMARK    6  A    between atoms: O_6  and  C_18 
REMARK    7  A    between atoms: O_8  and  C_21 
REMARK    8  A    between atoms: O_11  and  C_30 
REMARK    9  A    between atoms: O_12  and  C_33 
REMARK   10  A    between atoms: C_16  and  C_18 
REMARK   11  A    between atoms: C_22  and  C_25 
ROOT
ATOM      1  C   UNK d   1      19.187  -0.265  -7.384  0.00  0.00     0.106 A 
ATOM      2  C   UNK d   1      19.434   0.969  -6.750  0.00  0.00     0.054 A 
ATOM      3  C   UNK d   1      19.968  -0.638  -8.491  0.00  0.00     0.101 A 
ATOM      4  C   UNK d   1      20.404   1.874  -7.221  0.00  0.00     0.001 A 
ATOM      5  C   UNK d   1      20.949   0.238  -8.956  0.00  0.00     0.040 A 
ATOM      6  C   UNK d   1      21.155   1.476  -8.336  0.00  0.00     0.017 A 
ENDROOT
BRANCH   1   7
ATOM      7  O   UNK d   1      18.208  -1.156  -7.002  0.00  0.00    -0.315 OA
BRANCH   7   8
ATOM      8  C   UNK d   1      16.849  -0.709  -7.021  0.00  0.00     0.299 C 
ATOM      9  O   UNK d   1      16.440  -0.370  -5.693  0.00  0.00    -0.340 OA
ATOM     10  C   UNK d   1      15.119   0.148  -5.608  0.00  0.00     0.253 C 
ATOM     11  C   UNK d   1      14.105  -0.884  -6.109  0.00  0.00     0.189 C 
ATOM     12  C   UNK d   1      14.488  -1.353  -7.513  0.00  0.00     0.183 C 
ATOM     13  C   UNK d   1      15.943  -1.830  -7.574  0.00  0.00     0.205 C 
BRANCH  10  14
ATOM     14  C   UNK d   1      14.775   0.537  -4.159  0.00  0.00     0.172 C 
ATOM     15  O   UNK d   1      14.095   1.496  -3.829  0.00  0.00    -0.648 OA
BRANCH  14  16
ATOM     16  O   UNK d   1      15.261  -0.337  -3.238  0.00  0.00    -0.774 OA
ATOM     17  H   UNK d   1      14.707  -0.369  -2.422  0.00  0.00     0.167 HD
ENDBRANCH  14  16
ENDBRANCH  10  14
BRANCH  11  18
ATOM     18  O   UNK d   1      12.790  -0.294  -6.161  0.00  0.00    -0.390 OA
ATOM     19  H   UNK d   1      12.210  -0.984  -6.548  0.00  0.00     0.210 HD
ENDBRANCH  11  18
BRANCH  12  20
ATOM     20  O   UNK d   1      13.604  -2.411  -7.920  0.00  0.00    -0.390 OA
ATOM     21  H   UNK d   1      13.771  -2.577  -8.866  0.00  0.00     0.210 HD
ENDBRANCH  12  20
BRANCH  13  22
ATOM     22  O   UNK d   1      16.243  -2.126  -8.948  0.00  0.00    -0.388 OA
ATOM     23  H   UNK d   1      15.555  -1.673  -9.471  0.00  0.00     0.210 HD
ENDBRANCH  13  22
ENDBRANCH   7   8
ENDBRANCH   1   7
BRANCH   3  24
ATOM     24  O   UNK d   1      19.702  -1.861  -9.055  0.00  0.00    -0.353 OA
ATOM     25  C   UNK d   1      20.534  -2.275 -10.132  0.00  0.00     0.210 C 
ENDBRANCH   3  24
BRANCH   4  26
ATOM     26  C   UNK d   1      20.593   3.200  -6.560  0.00  0.00     0.090 A 
ATOM     27  O   UNK d   1      19.421   3.799  -6.110  0.00  0.00    -0.309 OA
ATOM     28  C   UNK d   1      19.491   5.024  -5.490  0.00  0.00     0.095 A 
ATOM     29  C   UNK d   1      20.684   5.724  -5.300  0.00  0.00     0.081 A 
ATOM     30  C   UNK d   1      18.282   5.563  -5.045  0.00  0.00     0.075 A 
ATOM     31  C   UNK d   1      21.927   5.102  -5.794  0.00  0.00     0.190 A 
ATOM     32  C   UNK d   1      20.657   6.971  -4.656  0.00  0.00     0.085 A 
ATOM     33  O   UNK d   1      23.039   5.608  -5.718  0.00  0.00    -0.287 OA
ATOM     34  C   UNK d   1      21.794   3.780  -6.427  0.00  0.00     0.094 A 
ATOM     35  C   UNK d   1      19.449   7.513  -4.209  0.00  0.00     0.074 A 
ATOM     36  C   UNK d   1      18.270   6.800  -4.410  0.00  0.00     0.071 A 
BRANCH  32  37
ATOM     37  O   UNK d   1      21.808   7.678  -4.456  0.00  0.00    -0.360 OA
ATOM     38  H   UNK d   1      21.702   8.324  -3.742  0.00  0.00     0.217 HD
ENDBRANCH  32  37
BRANCH  36  39
ATOM     39  O   UNK d   1      17.067   7.288  -3.994  0.00  0.00    -0.361 OA
ATOM     40  H   UNK d   1      16.461   7.338  -4.752  0.00  0.00     0.217 HD
ENDBRANCH  36  39
ENDBRANCH   4  26
TORSDOF 11
ENDMDL
MODEL 6
REMARK VINA RESULT:      -7.7     16.051     19.285
REMARK  11 active torsions:
REMARK  status: ('A' for Active; 'I' for Inactive)
REMARK    1  A    between atoms: O_2  and  C_17 
REMARK    2  A    between atoms: O_2  and  C_19 
REMARK    3  A    between atoms: O_3  and  C_13 
REMARK    4  A    between atoms: O_4  and  C_14 
REMARK    5  A    between atoms: O_5  and  C_15 
REMARK    6  A    between atoms: O_6  and  C_18 
REMARK    7  A    between atoms: O_8  and  C_21 
REMARK    8  A    between atoms: O_11  and  C_30 
REMARK    9  A    between atoms: O_12  and  C_33 
REMARK   10  A    between atoms: C_16  and  C_18 
REMARK   11  A    between atoms: C_22  and  C_25 
ROOT
ATOM      1  C   UNK d   1      25.990  -4.222  20.631  0.00  0.00     0.106 A 
ATOM      2  C   UNK d   1      25.871  -3.194  19.676  0.00  0.00     0.054 A 
ATOM      3  C   UNK d   1      25.834  -5.559  20.226  0.00  0.00     0.101 A 
ATOM      4  C   UNK d   1      25.544  -3.452  18.331  0.00  0.00     0.001 A 
ATOM      5  C   UNK d   1      25.532  -5.833  18.891  0.00  0.00     0.040 A 
ATOM      6  C   UNK d   1      25.381  -4.795  17.965  0.00  0.00     0.017 A 
ENDROOT
BRANCH   1   7
ATOM      7  O   UNK d   1      26.245  -4.019  21.970  0.00  0.00    -0.315 OA
BRANCH   7   8
ATOM      8  C   UNK d   1      25.165  -3.579  22.799  0.00  0.00     0.299 C 
ATOM      9  O   UNK d   1      25.402  -2.233  23.220  0.00  0.00    -0.340 OA
ATOM     10  C   UNK d   1      24.354  -1.676  24.001  0.00  0.00     0.253 C 
ATOM     11  C   UNK d   1      24.152  -2.487  25.284  0.00  0.00     0.189 C 
ATOM     12  C   UNK d   1      23.941  -3.962  24.941  0.00  0.00     0.183 C 
ATOM     13  C   UNK d   1      25.055  -4.498  24.035  0.00  0.00     0.205 C 
BRANCH  10  14
ATOM     14  C   UNK d   1      24.661  -0.213  24.367  0.00  0.00     0.172 C 
ATOM     15  O   UNK d   1      24.984   0.184  25.475  0.00  0.00    -0.648 OA
BRANCH  14  16
ATOM     16  O   UNK d   1      24.596   0.632  23.304  0.00  0.00    -0.774 OA
ATOM     17  H   UNK d   1      24.491   1.574  23.577  0.00  0.00     0.167 HD
ENDBRANCH  14  16
ENDBRANCH  10  14
BRANCH  11  18
ATOM     18  O   UNK d   1      22.992  -2.005  25.990  0.00  0.00    -0.390 OA
ATOM     19  H   UNK d   1      22.997  -1.032  25.869  0.00  0.00     0.210 HD
ENDBRANCH  11  18
BRANCH  12  20
ATOM     20  O   UNK d   1      23.880  -4.729  26.155  0.00  0.00    -0.390 OA
ATOM     21  H   UNK d   1      24.709  -4.563  26.642  0.00  0.00     0.210 HD
ENDBRANCH  12  20
BRANCH  13  22
ATOM     22  O   UNK d   1      24.703  -5.843  23.668  0.00  0.00    -0.388 OA
ATOM     23  H   UNK d   1      25.537  -6.268  23.393  0.00  0.00     0.210 HD
ENDBRANCH  13  22
ENDBRANCH   7   8
ENDBRANCH   1   7
BRANCH   3  24
ATOM     24  O   UNK d   1      25.984  -6.523  21.192  0.00  0.00    -0.353 OA
ATOM     25  C   UNK d   1      26.325  -7.833  20.755  0.00  0.00     0.210 C 
ENDBRANCH   3  24
BRANCH   4  26
ATOM     26  C   UNK d   1      25.365  -2.329  17.362  0.00  0.00     0.090 A 
ATOM     27  O   UNK d   1      25.559  -1.060  17.898  0.00  0.00    -0.309 OA
ATOM     28  C   UNK d   1      25.413   0.039  17.086  0.00  0.00     0.095 A 
ATOM     29  C   UNK d   1      25.056  -0.041  15.738  0.00  0.00     0.081 A 
ATOM     30  C   UNK d   1      25.638   1.283  17.679  0.00  0.00     0.075 A 
ATOM     31  C   UNK d   1      24.830  -1.384  15.170  0.00  0.00     0.190 A 
ATOM     32  C   UNK d   1      24.930   1.137  14.986  0.00  0.00     0.085 A 
ATOM     33  O   UNK d   1      24.492  -1.606  14.015  0.00  0.00    -0.287 OA
ATOM     34  C   UNK d   1      25.024  -2.524  16.081  0.00  0.00     0.094 A 
ATOM     35  C   UNK d   1      25.157   2.383  15.577  0.00  0.00     0.074 A 
ATOM     36  C   UNK d   1      25.508   2.442  16.922  0.00  0.00     0.071 A 
BRANCH  32  37
ATOM     37  O   UNK d   1      24.583   1.089  13.666  0.00  0.00    -0.360 OA
ATOM     38  H   UNK d   1      25.160   1.655  13.132  0.00  0.00     0.217 HD
ENDBRANCH  32  37
BRANCH  36  39
ATOM     39  O   UNK d   1      25.737   3.634  17.543  0.00  0.00    -0.361 OA
ATOM     40  H   UNK d   1      26.573   3.584  18.037  0.00  0.00     0.217 HD
ENDBRANCH  36  39
ENDBRANCH   4  26
TORSDOF 11
ENDMDL
MODEL 7
REMARK VINA RESULT:      -7.7     28.267     32.207
REMARK  11 active torsions:
REMARK  status: ('A' for Active; 'I' for Inactive)
REMARK    1  A    between atoms: O_2  and  C_17 
REMARK    2  A    between atoms: O_2  and  C_19 
REMARK    3  A    between atoms: O_3  and  C_13 
REMARK    4  A    between atoms: O_4  and  C_14 
REMARK    5  A    between atoms: O_5  and  C_15 
REMARK    6  A    between atoms: O_6  and  C_18 
REMARK    7  A    between atoms: O_8  and  C_21 
REMARK    8  A    between atoms: O_11  and  C_30 
REMARK    9  A    between atoms: O_12  and  C_33 
REMARK   10  A    between atoms: C_16  and  C_18 
REMARK   11  A    between atoms: C_22  and  C_25 
ROOT
ATOM      1  C   UNK d   1      18.928  -0.118  -7.418  0.00  0.00     0.106 A 
ATOM      2  C   UNK d   1      18.814   1.088  -6.699  0.00  0.00     0.054 A 
ATOM      3  C   UNK d   1      20.051  -0.326  -8.237  0.00  0.00     0.101 A 
ATOM      4  C   UNK d   1      19.762   2.123  -6.813  0.00  0.00     0.001 A 
ATOM      5  C   UNK d   1      21.011   0.681  -8.343  0.00  0.00     0.040 A 
ATOM      6  C   UNK d   1      20.861   1.887  -7.649  0.00  0.00     0.017 A 
ENDROOT
BRANCH   1   7
ATOM      7  O   UNK d   1      17.998  -1.134  -7.391  0.00  0.00    -0.315 OA
BRANCH   7   8
ATOM      8  C   UNK d   1      16.625  -0.781  -7.203  0.00  0.00     0.299 C 
ATOM      9  O   UNK d   1      16.359  -0.622  -5.807  0.00  0.00    -0.340 OA
ATOM     10  C   UNK d   1      15.032  -0.209  -5.512  0.00  0.00     0.253 C 
ATOM     11  C   UNK d   1      14.023  -1.244  -6.015  0.00  0.00     0.189 C 
ATOM     12  C   UNK d   1      14.260  -1.525  -7.500  0.00  0.00     0.183 C 
ATOM     13  C   UNK d   1      15.721  -1.893  -7.781  0.00  0.00     0.205 C 
BRANCH  10  14
ATOM     14  C   UNK d   1      14.843  -0.009  -3.997  0.00  0.00     0.172 C 
ATOM     15  O   UNK d   1      15.401  -0.657  -3.126  0.00  0.00    -0.648 OA
BRANCH  14  16
ATOM     16  O   UNK d   1      14.015   1.024  -3.691  0.00  0.00    -0.774 OA
ATOM     17  H   UNK d   1      14.495   1.883  -3.620  0.00  0.00     0.167 HD
ENDBRANCH  14  16
ENDBRANCH  10  14
BRANCH  11  18
ATOM     18  O   UNK d   1      12.682  -0.744  -5.848  0.00  0.00    -0.390 OA
ATOM     19  H   UNK d   1      12.547  -0.677  -4.879  0.00  0.00     0.210 HD
ENDBRANCH  11  18
BRANCH  12  20
ATOM     20  O   UNK d   1      13.393  -2.589  -7.928  0.00  0.00    -0.390 OA
ATOM     21  H   UNK d   1      12.503  -2.391  -7.582  0.00  0.00     0.210 HD
ENDBRANCH  12  20
BRANCH  13  22
ATOM     22  O   UNK d   1      15.870  -2.011  -9.205  0.00  0.00    -0.388 OA
ATOM     23  H   UNK d   1      16.824  -1.897  -9.381  0.00  0.00     0.210 HD
ENDBRANCH  13  22
ENDBRANCH   7   8
ENDBRANCH   1   7
BRANCH   3  24
ATOM     24  O   UNK d   1      20.125  -1.529  -8.896  0.00  0.00    -0.353 OA
ATOM     25  C   UNK d   1      19.918  -1.512 -10.304  0.00  0.00     0.210 C 
ENDBRANCH   3  24
BRANCH   4  26
ATOM     26  C   UNK d   1      19.573   3.413  -6.082  0.00  0.00     0.090 A 
ATOM     27  O   UNK d   1      20.741   4.139  -5.871  0.00  0.00    -0.309 OA
ATOM     28  C   UNK d   1      20.671   5.338  -5.203  0.00  0.00     0.095 A 
ATOM     29  C   UNK d   1      19.483   5.872  -4.699  0.00  0.00     0.081 A 
ATOM     30  C   UNK d   1      21.875   6.027  -5.039  0.00  0.00     0.075 A 
ATOM     31  C   UNK d   1      18.245   5.095  -4.903  0.00  0.00     0.190 A 
ATOM     32  C   UNK d   1      19.509   7.105  -4.030  0.00  0.00     0.085 A 
ATOM     33  O   UNK d   1      17.138   5.425  -4.498  0.00  0.00    -0.287 OA
ATOM     34  C   UNK d   1      18.377   3.830  -5.645  0.00  0.00     0.094 A 
ATOM     35  C   UNK d   1      20.712   7.797  -3.865  0.00  0.00     0.074 A 
ATOM     36  C   UNK d   1      21.885   7.247  -4.373  0.00  0.00     0.071 A 
BRANCH  32  37
ATOM     37  O   UNK d   1      18.362   7.650  -3.527  0.00  0.00    -0.360 OA
ATOM     38  H   UNK d   1      17.825   6.981  -3.078  0.00  0.00     0.217 HD
ENDBRANCH  32  37
BRANCH  36  39
ATOM     39  O   UNK d   1      23.083   7.884  -4.234  0.00  0.00    -0.361 OA
ATOM     40  H   UNK d   1      23.717   7.287  -3.802  0.00  0.00     0.217 HD
ENDBRANCH  36  39
ENDBRANCH   4  26
TORSDOF 11
ENDMDL
MODEL 8
REMARK VINA RESULT:      -7.6     16.037     19.364
REMARK  11 active torsions:
REMARK  status: ('A' for Active; 'I' for Inactive)
REMARK    1  A    between atoms: O_2  and  C_17 
REMARK    2  A    between atoms: O_2  and  C_19 
REMARK    3  A    between atoms: O_3  and  C_13 
REMARK    4  A    between atoms: O_4  and  C_14 
REMARK    5  A    between atoms: O_5  and  C_15 
REMARK    6  A    between atoms: O_6  and  C_18 
REMARK    7  A    between atoms: O_8  and  C_21 
REMARK    8  A    between atoms: O_11  and  C_30 
REMARK    9  A    between atoms: O_12  and  C_33 
REMARK   10  A    between atoms: C_16  and  C_18 
REMARK   11  A    between atoms: C_22  and  C_25 
ROOT
ATOM      1  C   UNK d   1      25.916  -4.037  20.627  0.00  0.00     0.106 A 
ATOM      2  C   UNK d   1      25.882  -2.942  19.742  0.00  0.00     0.054 A 
ATOM      3  C   UNK d   1      25.675  -5.330  20.131  0.00  0.00     0.101 A 
ATOM      4  C   UNK d   1      25.559  -3.087  18.379  0.00  0.00     0.001 A 
ATOM      5  C   UNK d   1      25.376  -5.493  18.778  0.00  0.00     0.040 A 
ATOM      6  C   UNK d   1      25.310  -4.388  17.921  0.00  0.00     0.017 A 
ENDROOT
BRANCH   1   7
ATOM      7  O   UNK d   1      26.164  -3.941  21.978  0.00  0.00    -0.315 OA
BRANCH   7   8
ATOM      8  C   UNK d   1      25.093  -3.521  22.829  0.00  0.00     0.299 C 
ATOM      9  O   UNK d   1      25.310  -2.168  23.238  0.00  0.00    -0.340 OA
ATOM     10  C   UNK d   1      24.267  -1.630  24.040  0.00  0.00     0.253 C 
ATOM     11  C   UNK d   1      24.110  -2.439  25.330  0.00  0.00     0.189 C 
ATOM     12  C   UNK d   1      23.924  -3.920  24.998  0.00  0.00     0.183 C 
ATOM     13  C   UNK d   1      25.029  -4.437  24.071  0.00  0.00     0.205 C 
BRANCH  10  14
ATOM     14  C   UNK d   1      24.549  -0.159  24.393  0.00  0.00     0.172 C 
ATOM     15  O   UNK d   1      24.235   0.802  23.710  0.00  0.00    -0.648 OA
BRANCH  14  16
ATOM     16  O   UNK d   1      25.152  -0.003  25.601  0.00  0.00    -0.774 OA
ATOM     17  H   UNK d   1      25.910  -0.621  25.726  0.00  0.00     0.167 HD
ENDBRANCH  14  16
ENDBRANCH  10  14
BRANCH  11  18
ATOM     18  O   UNK d   1      22.954  -1.980  26.059  0.00  0.00    -0.390 OA
ATOM     19  H   UNK d   1      23.064  -1.008  26.138  0.00  0.00     0.210 HD
ENDBRANCH  11  18
BRANCH  12  20
ATOM     20  O   UNK d   1      23.905  -4.683  26.216  0.00  0.00    -0.390 OA
ATOM     21  H   UNK d   1      22.970  -4.844  26.441  0.00  0.00     0.210 HD
ENDBRANCH  12  20
BRANCH  13  22
ATOM     22  O   UNK d   1      24.699  -5.790  23.717  0.00  0.00    -0.388 OA
ATOM     23  H   UNK d   1      23.756  -5.773  23.465  0.00  0.00     0.210 HD
ENDBRANCH  13  22
ENDBRANCH   7   8
ENDBRANCH   1   7
BRANCH   3  24
ATOM     24  O   UNK d   1      25.745  -6.364  21.032  0.00  0.00    -0.353 OA
ATOM     25  C   UNK d   1      26.377  -7.562  20.597  0.00  0.00     0.210 C 
ENDBRANCH   3  24
BRANCH   4  26
ATOM     26  C   UNK d   1      25.472  -1.893  17.485  0.00  0.00     0.090 A 
ATOM     27  O   UNK d   1      25.506  -2.180  16.124  0.00  0.00    -0.309 OA
ATOM     28  C   UNK d   1      25.435  -1.147  15.221  0.00  0.00     0.095 A 
ATOM     29  C   UNK d   1      25.349   0.197  15.592  0.00  0.00     0.081 A 
ATOM     30  C   UNK d   1      25.455  -1.502  13.870  0.00  0.00     0.075 A 
ATOM     31  C   UNK d   1      25.333   0.507  17.034  0.00  0.00     0.190 A 
ATOM     32  C   UNK d   1      25.281   1.185  14.598  0.00  0.00     0.085 A 
ATOM     33  O   UNK d   1      25.285   1.636  17.505  0.00  0.00    -0.287 OA
ATOM     34  C   UNK d   1      25.388  -0.640  17.954  0.00  0.00     0.094 A 
ATOM     35  C   UNK d   1      25.300   0.832  13.245  0.00  0.00     0.074 A 
ATOM     36  C   UNK d   1      25.389  -0.512  12.896  0.00  0.00     0.071 A 
BRANCH  32  37
ATOM     37  O   UNK d   1      25.196   2.506  14.932  0.00  0.00    -0.360 OA
ATOM     38  H   UNK d   1      24.571   2.643  15.659  0.00  0.00     0.217 HD
ENDBRANCH  32  37
BRANCH  36  39
ATOM     39  O   UNK d   1      25.413  -0.904  11.590  0.00  0.00    -0.361 OA
ATOM     40  H   UNK d   1      24.625  -0.560  11.136  0.00  0.00     0.217 HD
ENDBRANCH  36  39
ENDBRANCH   4  26
TORSDOF 11
ENDMDL
MODEL 9
REMARK VINA RESULT:      -7.6     27.339     31.333
REMARK  11 active torsions:
REMARK  status: ('A' for Active; 'I' for Inactive)
REMARK    1  A    between atoms: O_2  and  C_17 
REMARK    2  A    between atoms: O_2  and  C_19 
REMARK    3  A    between atoms: O_3  and  C_13 
REMARK    4  A    between atoms: O_4  and  C_14 
REMARK    5  A    between atoms: O_5  and  C_15 
REMARK    6  A    between atoms: O_6  and  C_18 
REMARK    7  A    between atoms: O_8  and  C_21 
REMARK    8  A    between atoms: O_11  and  C_30 
REMARK    9  A    between atoms: O_12  and  C_33 
REMARK   10  A    between atoms: C_16  and  C_18 
REMARK   11  A    between atoms: C_22  and  C_25 
ROOT
ATOM      1  C   UNK d   1      15.984  -1.280  -7.118  0.00  0.00     0.106 A 
ATOM      2  C   UNK d   1      16.891  -0.229  -6.882  0.00  0.00     0.054 A 
ATOM      3  C   UNK d   1      14.612  -1.067  -6.901  0.00  0.00     0.101 A 
ATOM      4  C   UNK d   1      16.479   1.020  -6.381  0.00  0.00     0.001 A 
ATOM      5  C   UNK d   1      14.185   0.174  -6.425  0.00  0.00     0.040 A 
ATOM      6  C   UNK d   1      15.106   1.194  -6.161  0.00  0.00     0.017 A 
ENDROOT
BRANCH   1   7
ATOM      7  O   UNK d   1      16.342  -2.540  -7.547  0.00  0.00    -0.315 OA
BRANCH   7   8
ATOM      8  C   UNK d   1      16.802  -3.476  -6.568  0.00  0.00     0.299 C 
ATOM      9  O   UNK d   1      16.455  -3.011  -5.262  0.00  0.00    -0.340 OA
ATOM     10  C   UNK d   1      16.812  -3.903  -4.214  0.00  0.00     0.253 C 
ATOM     11  C   UNK d   1      18.326  -4.125  -4.192  0.00  0.00     0.189 C 
ATOM     12  C   UNK d   1      18.808  -4.578  -5.571  0.00  0.00     0.183 C 
ATOM     13  C   UNK d   1      18.335  -3.628  -6.677  0.00  0.00     0.205 C 
BRANCH  10  14
ATOM     14  C   UNK d   1      16.358  -3.356  -2.849  0.00  0.00     0.172 C 
ATOM     15  O   UNK d   1      16.225  -4.018  -1.833  0.00  0.00    -0.648 OA
BRANCH  14  16
ATOM     16  O   UNK d   1      16.161  -2.010  -2.848  0.00  0.00    -0.774 OA
ATOM     17  H   UNK d   1      16.963  -1.513  -3.137  0.00  0.00     0.167 HD
ENDBRANCH  14  16
ENDBRANCH  10  14
BRANCH  11  18
ATOM     18  O   UNK d   1      18.658  -5.145  -3.229  0.00  0.00    -0.390 OA
ATOM     19  H   UNK d   1      18.179  -4.897  -2.410  0.00  0.00     0.210 HD
ENDBRANCH  11  18
BRANCH  12  20
ATOM     20  O   UNK d   1      20.243  -4.660  -5.572  0.00  0.00    -0.390 OA
ATOM     21  H   UNK d   1      20.502  -5.172  -6.361  0.00  0.00     0.210 HD
ENDBRANCH  12  20
BRANCH  13  22
ATOM     22  O   UNK d   1      18.724  -4.202  -7.935  0.00  0.00    -0.388 OA
ATOM     23  H   UNK d   1      19.260  -3.519  -8.382  0.00  0.00     0.210 HD
ENDBRANCH  13  22
ENDBRANCH   7   8
ENDBRANCH   1   7
BRANCH   3  24
ATOM     24  O   UNK d   1      13.769  -2.117  -7.170  0.00  0.00    -0.353 OA
ATOM     25  C   UNK d   1      13.141  -2.746  -6.059  0.00  0.00     0.210 C 
ENDBRANCH   3  24
BRANCH   4  26
ATOM     26  C   UNK d   1      17.480   2.090  -6.084  0.00  0.00     0.090 A 
ATOM     27  O   UNK d   1      16.944   3.258  -5.551  0.00  0.00    -0.309 OA
ATOM     28  C   UNK d   1      17.784   4.302  -5.248  0.00  0.00     0.095 A 
ATOM     29  C   UNK d   1      19.164   4.268  -5.463  0.00  0.00     0.081 A 
ATOM     30  C   UNK d   1      17.187   5.439  -4.700  0.00  0.00     0.075 A 
ATOM     31  C   UNK d   1      19.734   3.039  -6.047  0.00  0.00     0.190 A 
ATOM     32  C   UNK d   1      19.943   5.384  -5.122  0.00  0.00     0.085 A 
ATOM     33  O   UNK d   1      20.918   2.875  -6.311  0.00  0.00    -0.287 OA
ATOM     34  C   UNK d   1      18.790   1.946  -6.329  0.00  0.00     0.094 A 
ATOM     35  C   UNK d   1      19.348   6.523  -4.572  0.00  0.00     0.074 A 
ATOM     36  C   UNK d   1      17.972   6.538  -4.368  0.00  0.00     0.071 A 
BRANCH  32  37
ATOM     37  O   UNK d   1      21.294   5.379  -5.321  0.00  0.00    -0.360 OA
ATOM     38  H   UNK d   1      21.510   5.175  -6.243  0.00  0.00     0.217 HD
ENDBRANCH  32  37
BRANCH  36  39
ATOM     39  O   UNK d   1      17.346   7.627  -3.836  0.00  0.00    -0.361 OA
ATOM     40  H   UNK d   1      17.520   8.402  -4.396  0.00  0.00     0.217 HD
ENDBRANCH  36  39
ENDBRANCH   4  26
TORSDOF 11
ENDMDL
