MODEL 1
REMARK minimizedAffinity -3.67707014REMARK CNNscore 0.784607649REMARK CNNaffinity 3.1186862REMARK  1 active torsions:
REMARK  status: ('A' for Active; 'I' for Inactive)
REMARK    1  A    between atoms: C_3  and  C_7 
ROOT
ATOM      1  N   LIG d   1      17.917  -3.107  35.839  0.00  0.00    -0.067 N 
ATOM      2  C   LIG d   1      17.206  -4.318  35.251  0.00  0.00     0.222 C 
ATOM      3  C   LIG d   1      16.114  -3.654  34.409  0.00  0.00     0.040 C 
ATOM      4  C   LIG d   1      16.660  -2.296  33.975  0.00  0.00     0.030 C 
ATOM      5  C   LIG d   1      17.943  -2.066  34.755  0.00  0.00     0.235 C 
ATOM      6  C   LIG d   1      19.243  -3.349  36.487  0.00  0.00     0.270 C 
ATOM      7  H   LIG d   1      17.298  -2.748  36.577  0.00  0.00     0.280 HD
ENDROOT
BRANCH   2   8
ATOM      8  C   LIG d   1      18.095  -5.298  34.527  0.00  0.00    -0.010 A 
ATOM      9  C   LIG d   1      18.648  -6.389  35.217  0.00  0.00     0.012 A 
ATOM     10  C   LIG d   1      19.494  -7.281  34.562  0.00  0.00     0.020 A 
ATOM     11  C   LIG d   1      19.773  -7.056  33.228  0.00  0.00     0.116 A 
ATOM     12  N   LIG d   1      19.267  -6.018  32.530  0.00  0.00    -0.273 NA
ATOM     13  C   LIG d   1      18.438  -5.177  33.183  0.00  0.00     0.125 A 
ENDBRANCH   2   8
TORSDOF 1
ENDMDL
MODEL 2
REMARK minimizedAffinity -3.34053421REMARK CNNscore 0.765440047REMARK CNNaffinity 2.89144588REMARK  1 active torsions:
REMARK  status: ('A' for Active; 'I' for Inactive)
REMARK    1  A    between atoms: C_3  and  C_7 
ROOT
ATOM      1  N   LIG d   1      15.722   0.123  37.852  0.00  0.00    -0.067 N 
ATOM      2  C   LIG d   1      14.747  -0.548  36.895  0.00  0.00     0.222 C 
ATOM      3  C   LIG d   1      13.848   0.627  36.499  0.00  0.00     0.040 C 
ATOM      4  C   LIG d   1      14.705   1.887  36.601  0.00  0.00     0.030 C 
ATOM      5  C   LIG d   1      16.002   1.485  37.283  0.00  0.00     0.235 C 
ATOM      6  C   LIG d   1      16.949  -0.650  38.219  0.00  0.00     0.270 C 
ATOM      7  H   LIG d   1      15.203   0.269  38.727  0.00  0.00     0.280 HD
ENDROOT
BRANCH   2   8
ATOM      8  C   LIG d   1      15.380  -1.309  35.757  0.00  0.00    -0.010 A 
ATOM      9  C   LIG d   1      15.313  -2.711  35.725  0.00  0.00     0.012 A 
ATOM     10  C   LIG d   1      15.921  -3.422  34.692  0.00  0.00     0.020 A 
ATOM     11  C   LIG d   1      16.591  -2.711  33.716  0.00  0.00     0.116 A 
ATOM     12  N   LIG d   1      16.684  -1.365  33.713  0.00  0.00    -0.273 NA
ATOM     13  C   LIG d   1      16.072  -0.698  34.715  0.00  0.00     0.125 A 
ENDBRANCH   2   8
TORSDOF 1
ENDMDL
MODEL 3
REMARK minimizedAffinity -4.86279583REMARK CNNscore 0.701241195REMARK CNNaffinity 3.90766668REMARK  1 active torsions:
REMARK  status: ('A' for Active; 'I' for Inactive)
REMARK    1  A    between atoms: C_3  and  C_7 
ROOT
ATOM      1  N   LIG d   1       8.214  -0.379  22.471  0.00  0.00    -0.067 N 
ATOM      2  C   LIG d   1       7.691   0.935  21.910  0.00  0.00     0.222 C 
ATOM      3  C   LIG d   1       8.936   1.822  21.992  0.00  0.00     0.040 C 
ATOM      4  C   LIG d   1      10.143   0.895  21.864  0.00  0.00     0.030 C 
ATOM      5  C   LIG d   1       9.619  -0.529  21.957  0.00  0.00     0.235 C 
ATOM      6  C   LIG d   1       7.358  -1.589  22.270  0.00  0.00     0.270 C 
ATOM      7  H   LIG d   1       8.284  -0.243  23.487  0.00  0.00     0.280 HD
ENDROOT
BRANCH   2   8
ATOM      8  C   LIG d   1       7.035   0.842  20.555  0.00  0.00    -0.010 A 
ATOM      9  C   LIG d   1       5.722   1.307  20.375  0.00  0.00     0.012 A 
ATOM     10  C   LIG d   1       5.099   1.197  19.133  0.00  0.00     0.020 A 
ATOM     11  C   LIG d   1       5.805   0.614  18.098  0.00  0.00     0.116 A 
ATOM     12  N   LIG d   1       7.064   0.150  18.231  0.00  0.00    -0.273 NA
ATOM     13  C   LIG d   1       7.652   0.283  19.438  0.00  0.00     0.125 A 
ENDBRANCH   2   8
TORSDOF 1
ENDMDL
MODEL 4
REMARK minimizedAffinity -4.1169343REMARK CNNscore 0.689560831REMARK CNNaffinity 3.31532741REMARK  1 active torsions:
REMARK  status: ('A' for Active; 'I' for Inactive)
REMARK    1  A    between atoms: C_3  and  C_7 
ROOT
ATOM      1  N   LIG d   1       7.282  30.101 -12.895  0.00  0.00    -0.067 N 
ATOM      2  C   LIG d   1       6.465  28.867 -13.251  0.00  0.00     0.222 C 
ATOM      3  C   LIG d   1       6.574  28.857 -14.778  0.00  0.00     0.040 C 
ATOM      4  C   LIG d   1       7.907  29.517 -15.126  0.00  0.00     0.030 C 
ATOM      5  C   LIG d   1       8.448  30.124 -13.842  0.00  0.00     0.235 C 
ATOM      6  C   LIG d   1       7.659  30.271 -11.457  0.00  0.00     0.270 C 
ATOM      7  H   LIG d   1       6.692  30.908 -13.133  0.00  0.00     0.280 HD
ENDROOT
BRANCH   2   8
ATOM      8  C   LIG d   1       6.877  27.597 -12.551  0.00  0.00    -0.010 A 
ATOM      9  C   LIG d   1       6.137  27.126 -11.454  0.00  0.00     0.012 A 
ATOM     10  C   LIG d   1       6.529  25.969 -10.784  0.00  0.00     0.020 A 
ATOM     11  C   LIG d   1       7.661  25.312 -11.224  0.00  0.00     0.116 A 
ATOM     12  N   LIG d   1       8.402  25.733 -12.270  0.00  0.00    -0.273 NA
ATOM     13  C   LIG d   1       7.993  26.847 -12.912  0.00  0.00     0.125 A 
ENDBRANCH   2   8
TORSDOF 1
ENDMDL
MODEL 5
REMARK minimizedAffinity -3.18080449REMARK CNNscore 0.679459155REMARK CNNaffinity 3.20467067REMARK  1 active torsions:
REMARK  status: ('A' for Active; 'I' for Inactive)
REMARK    1  A    between atoms: C_3  and  C_7 
ROOT
ATOM      1  N   LIG d   1      21.758 -17.486   4.812  0.00  0.00    -0.067 N 
ATOM      2  C   LIG d   1      20.562 -16.693   4.304  0.00  0.00     0.222 C 
ATOM      3  C   LIG d   1      19.906 -16.253   5.616  0.00  0.00     0.040 C 
ATOM      4  C   LIG d   1      21.024 -16.147   6.650  0.00  0.00     0.030 C 
ATOM      5  C   LIG d   1      22.267 -16.753   6.021  0.00  0.00     0.235 C 
ATOM      6  C   LIG d   1      22.818 -17.826   3.812  0.00  0.00     0.270 C 
ATOM      7  H   LIG d   1      21.381 -18.381   5.146  0.00  0.00     0.280 HD
ENDROOT
BRANCH   2   8
ATOM      8  C   LIG d   1      20.886 -15.592   3.326  0.00  0.00    -0.010 A 
ATOM      9  C   LIG d   1      20.846 -15.844   1.945  0.00  0.00     0.012 A 
ATOM     10  C   LIG d   1      21.173 -14.839   1.036  0.00  0.00     0.020 A 
ATOM     11  C   LIG d   1      21.542 -13.604   1.533  0.00  0.00     0.116 A 
ATOM     12  N   LIG d   1      21.599 -13.323   2.851  0.00  0.00    -0.273 NA
ATOM     13  C   LIG d   1      21.261 -14.308   3.710  0.00  0.00     0.125 A 
ENDBRANCH   2   8
TORSDOF 1
ENDMDL
MODEL 6
REMARK minimizedAffinity -4.18798304REMARK CNNscore 0.657648981REMARK CNNaffinity 3.22675776REMARK  1 active torsions:
REMARK  status: ('A' for Active; 'I' for Inactive)
REMARK    1  A    between atoms: C_3  and  C_7 
ROOT
ATOM      1  N   LIG d   1       5.565  29.915 -12.381  0.00  0.00    -0.067 N 
ATOM      2  C   LIG d   1       6.929  29.576 -11.798  0.00  0.00     0.222 C 
ATOM      3  C   LIG d   1       6.908  30.369 -10.488  0.00  0.00     0.040 C 
ATOM      4  C   LIG d   1       5.446  30.468 -10.059  0.00  0.00     0.030 C 
ATOM      5  C   LIG d   1       4.609  29.961 -11.222  0.00  0.00     0.235 C 
ATOM      6  C   LIG d   1       5.093  29.079 -13.529  0.00  0.00     0.270 C 
ATOM      7  H   LIG d   1       5.641  30.875 -12.739  0.00  0.00     0.280 HD
ENDROOT
BRANCH   2   8
ATOM      8  C   LIG d   1       7.230  28.104 -11.674  0.00  0.00    -0.010 A 
ATOM      9  C   LIG d   1       6.871  27.408 -10.509  0.00  0.00     0.012 A 
ATOM     10  C   LIG d   1       7.173  26.054 -10.375  0.00  0.00     0.020 A 
ATOM     11  C   LIG d   1       7.836  25.428 -11.412  0.00  0.00     0.116 A 
ATOM     12  N   LIG d   1       8.203  26.060 -12.546  0.00  0.00    -0.273 NA
ATOM     13  C   LIG d   1       7.885  27.367 -12.658  0.00  0.00     0.125 A 
ENDBRANCH   2   8
TORSDOF 1
ENDMDL
MODEL 7
REMARK minimizedAffinity -3.21619272REMARK CNNscore 0.644117892REMARK CNNaffinity 2.99997759REMARK  1 active torsions:
REMARK  status: ('A' for Active; 'I' for Inactive)
REMARK    1  A    between atoms: C_3  and  C_7 
ROOT
ATOM      1  N   LIG d   1      19.325  -4.866  35.135  0.00  0.00    -0.067 N 
ATOM      2  C   LIG d   1      18.461  -4.298  34.018  0.00  0.00     0.222 C 
ATOM      3  C   LIG d   1      18.106  -5.563  33.231  0.00  0.00     0.040 C 
ATOM      4  C   LIG d   1      18.113  -6.716  34.231  0.00  0.00     0.030 C 
ATOM      5  C   LIG d   1      18.704  -6.178  35.524  0.00  0.00     0.235 C 
ATOM      6  C   LIG d   1      19.617  -3.962  36.291  0.00  0.00     0.270 C 
ATOM      7  H   LIG d   1      20.232  -5.084  34.705  0.00  0.00     0.280 HD
ENDROOT
BRANCH   2   8
ATOM      8  C   LIG d   1      17.297  -3.452  34.470  0.00  0.00    -0.010 A 
ATOM      9  C   LIG d   1      17.356  -2.054  34.356  0.00  0.00     0.012 A 
ATOM     10  C   LIG d   1      16.297  -1.265  34.799  0.00  0.00     0.020 A 
ATOM     11  C   LIG d   1      15.201  -1.896  35.354  0.00  0.00     0.116 A 
ATOM     12  N   LIG d   1      15.106  -3.235  35.487  0.00  0.00    -0.273 NA
ATOM     13  C   LIG d   1      16.138  -3.978  35.035  0.00  0.00     0.125 A 
ENDBRANCH   2   8
TORSDOF 1
ENDMDL
MODEL 8
REMARK minimizedAffinity -3.09563446REMARK CNNscore 0.622894168REMARK CNNaffinity 2.81043434REMARK  1 active torsions:
REMARK  status: ('A' for Active; 'I' for Inactive)
REMARK    1  A    between atoms: C_3  and  C_7 
ROOT
ATOM      1  N   LIG d   1      17.518   0.802  36.862  0.00  0.00    -0.067 N 
ATOM      2  C   LIG d   1      16.196   0.491  36.175  0.00  0.00     0.222 C 
ATOM      3  C   LIG d   1      16.078   1.660  35.193  0.00  0.00     0.040 C 
ATOM      4  C   LIG d   1      17.502   2.087  34.848  0.00  0.00     0.030 C 
ATOM      5  C   LIG d   1      18.429   1.349  35.800  0.00  0.00     0.235 C 
ATOM      6  C   LIG d   1      18.125  -0.289  37.686  0.00  0.00     0.270 C 
ATOM      7  H   LIG d   1      17.322   1.576  37.510  0.00  0.00     0.280 HD
ENDROOT
BRANCH   2   8
ATOM      8  C   LIG d   1      16.091  -0.889  35.574  0.00  0.00    -0.010 A 
ATOM      9  C   LIG d   1      16.777  -1.194  34.388  0.00  0.00     0.012 A 
ATOM     10  C   LIG d   1      16.660  -2.457  33.811  0.00  0.00     0.020 A 
ATOM     11  C   LIG d   1      15.852  -3.387  34.435  0.00  0.00     0.116 A 
ATOM     12  N   LIG d   1      15.173  -3.133  35.572  0.00  0.00    -0.273 NA
ATOM     13  C   LIG d   1      15.315  -1.908  36.120  0.00  0.00     0.125 A 
ENDBRANCH   2   8
TORSDOF 1
ENDMDL
MODEL 9
REMARK minimizedAffinity -4.42801809REMARK CNNscore 0.622389078REMARK CNNaffinity 3.29458237REMARK  1 active torsions:
REMARK  status: ('A' for Active; 'I' for Inactive)
REMARK    1  A    between atoms: C_3  and  C_7 
ROOT
ATOM      1  N   LIG d   1       0.108  10.737  -4.233  0.00  0.00    -0.067 N 
ATOM      2  C   LIG d   1       0.145   9.223  -4.080  0.00  0.00     0.222 C 
ATOM      3  C   LIG d   1       1.207   8.836  -5.114  0.00  0.00     0.040 C 
ATOM      4  C   LIG d   1       2.161  10.023  -5.226  0.00  0.00     0.030 C 
ATOM      5  C   LIG d   1       1.528  11.173  -4.461  0.00  0.00     0.235 C 
ATOM      6  C   LIG d   1      -0.604  11.507  -3.166  0.00  0.00     0.270 C 
ATOM      7  H   LIG d   1      -0.401  10.919  -5.107  0.00  0.00     0.280 HD
ENDROOT
BRANCH   2   8
ATOM      8  C   LIG d   1       0.375   8.721  -2.677  0.00  0.00    -0.010 A 
ATOM      9  C   LIG d   1      -0.610   7.957  -2.032  0.00  0.00     0.012 A 
ATOM     10  C   LIG d   1      -0.416   7.516  -0.725  0.00  0.00     0.020 A 
ATOM     11  C   LIG d   1       0.761   7.858  -0.088  0.00  0.00     0.116 A 
ATOM     12  N   LIG d   1       1.730   8.594  -0.669  0.00  0.00    -0.273 NA
ATOM     13  C   LIG d   1       1.526   8.996  -1.942  0.00  0.00     0.125 A 
ENDBRANCH   2   8
TORSDOF 1
ENDMDL
