REMARK  6 active torsions:
REMARK  status: ('A' for Active; 'I' for Inactive)
REMARK    1  A    between atoms: S_1  and  C_8 
REMARK    2  A    between atoms: S_1  and  C_10 
REMARK    3  A    between atoms: N_6  and  C_7 
REMARK    4  A    between atoms: C_7  and  C_9 
REMARK    5  A    between atoms: C_7  and  C_8 
REMARK    6  A    between atoms: C_10  and  C_11 
ROOT
ATOM      1  C   UNK d   1      -0.662 -24.373  -3.699  0.00  0.00     0.292 C 
ENDROOT
BRANCH   1   2
ATOM      2  N   UNK d   1      -0.813 -22.896  -3.446  0.00  0.00    -0.065 N 
ATOM      3  H   UNK d   1      -1.760 -22.578  -3.268  0.00  0.00     0.275 HD
ATOM      4  H   UNK d   1      -0.453 -22.308  -4.243  0.00  0.00     0.275 HD
ATOM      5  H   UNK d   1      -0.183 -22.705  -2.644  0.00  0.00     0.275 HD
ENDBRANCH   1   2
BRANCH   1   6
ATOM      6  C   UNK d   1      -1.546 -25.183  -2.708  0.00  0.00     0.205 C 
ATOM      7  O   UNK d   1      -2.256 -24.407  -1.987  0.00  0.00    -0.646 OA
ATOM      8  O   UNK d   1      -1.491 -26.435  -2.761  0.00  0.00    -0.646 OA
ENDBRANCH   1   6
BRANCH   1   9
ATOM      9  C   UNK d   1       0.795 -24.814  -3.576  0.00  0.00     0.118 C 
BRANCH   9  10
ATOM     10  S   UNK d   1       1.877 -24.016  -4.839  0.00  0.00    -0.156 SA
BRANCH  10  11
ATOM     11  C   UNK d   1       2.804 -22.833  -3.783  0.00  0.00     0.186 C 
BRANCH  11  12
ATOM     12  C   UNK d   1       1.785 -22.159  -2.860  0.00  0.00     0.182 C 
ATOM     13  O   UNK d   1       1.166 -21.166  -3.363  0.00  0.00    -0.647 OA
ATOM     14  O   UNK d   1       1.677 -22.633  -1.698  0.00  0.00    -0.647 OA
ENDBRANCH  11  12
ENDBRANCH  10  11
ENDBRANCH   9  10
ENDBRANCH   1   9
TORSDOF 6
