MODEL 1
REMARK VINA RESULT:      -7.5      0.000      0.000
REMARK  9 active torsions:
REMARK  status: ('A' for Active; 'I' for Inactive)
REMARK    1  A    between atoms: N_3  and  C_17 
REMARK    2  A    between atoms: N_4  and  C_18 
REMARK       I    between atoms: N_5  and  C_19 
REMARK       I    between atoms: N_6  and  C_20 
REMARK       I    between atoms: N_7  and  C_19 
REMARK       I    between atoms: N_8  and  C_20 
REMARK       I    between atoms: N_9  and  C_21 
REMARK    3  A    between atoms: N_9  and  C_23 
REMARK       I    between atoms: N_10  and  C_22 
REMARK    4  A    between atoms: N_10  and  C_24 
REMARK       I    between atoms: N_11  and  C_21 
REMARK       I    between atoms: N_12  and  C_22 
REMARK    5  A    between atoms: C_13  and  C_14 
REMARK    6  A    between atoms: C_13  and  C_15 
REMARK    7  A    between atoms: C_14  and  C_16 
REMARK    8  A    between atoms: C_15  and  C_17 
REMARK    9  A    between atoms: C_16  and  C_18 
ROOT
ATOM      1  C   LIG d   1       6.167  13.046   4.104  0.00  0.00     0.002 C 
ENDROOT
BRANCH   1   2
ATOM      2  C   LIG d   1       7.547  12.619   4.604  0.00  0.00     0.002 C 
BRANCH   2   3
ATOM      3  C   LIG d   1       8.085  13.595   5.650  0.00  0.00     0.022 C 
BRANCH   3   4
ATOM      4  C   LIG d   1       7.717  15.036   5.304  0.00  0.00     0.152 C 
BRANCH   4   5
ATOM      5  N   LIG d   1       8.907  15.879   5.377  0.00  0.00    -0.261 NA
ATOM      6  C   LIG d   1       8.884  17.069   4.894  0.00  0.00     0.197 C 
ATOM      7  N   LIG d   1      10.008  17.831   4.999  0.00  0.00    -0.190 NA
ATOM      8  N   LIG d   1       7.832  17.703   4.314  0.00  0.00    -0.271 NA
ATOM      9  C   LIG d   1      11.187  17.327   4.838  0.00  0.00     0.180 C 
ATOM     10  N   LIG d   1      12.363  18.030   4.909  0.00  0.00    -0.331 N 
ATOM     11  N   LIG d   1      11.476  16.024   4.538  0.00  0.00    -0.272 NA
ATOM     12  H   LIG d   1      13.075  17.681   4.282  0.00  0.00     0.168 HD
ATOM     13  H   LIG d   1      10.635  15.458   4.689  0.00  0.00     0.127 HD
ATOM     14  H   LIG d   1      12.210  15.656   5.133  0.00  0.00     0.127 HD
ATOM     15  H   LIG d   1       6.941  17.507   4.743  0.00  0.00     0.127 HD
ATOM     16  H   LIG d   1       8.018  18.698   4.263  0.00  0.00     0.127 HD
BRANCH  10  17
ATOM     17  C   LIG d   1      12.558  19.350   5.350  0.00  0.00     0.034 A 
ATOM     18  C   LIG d   1      12.630  19.607   6.728  0.00  0.00     0.031 A 
ATOM     19  C   LIG d   1      12.801  20.908   7.214  0.00  0.00     0.026 A 
ATOM     20  C   LIG d   1      12.891  21.972   6.323  0.00  0.00     0.034 A 
ATOM     21 CL   LIG d   1      13.096  23.574   6.916  0.00  0.00    -0.084 Cl
ATOM     22  C   LIG d   1      12.808  21.745   4.954  0.00  0.00     0.026 A 
ATOM     23  C   LIG d   1      12.640  20.443   4.474  0.00  0.00     0.031 A 
ENDBRANCH  10  17
ENDBRANCH   4   5
ENDBRANCH   3   4
ENDBRANCH   2   3
ENDBRANCH   1   2
BRANCH   1  24
ATOM     24  C   LIG d   1       6.250  13.684   2.718  0.00  0.00     0.022 C 
BRANCH  24  25
ATOM     25  C   LIG d   1       7.551  13.309   2.011  0.00  0.00     0.152 C 
BRANCH  25  26
ATOM     26  N   LIG d   1       8.242  14.509   1.548  0.00  0.00    -0.261 NA
ATOM     27  C   LIG d   1       9.416  14.791   1.989  0.00  0.00     0.197 C 
ATOM     28  N   LIG d   1      10.043  15.918   1.539  0.00  0.00    -0.190 NA
ATOM     29  N   LIG d   1      10.164  14.045   2.843  0.00  0.00    -0.271 NA
ATOM     30  C   LIG d   1       9.384  16.969   1.153  0.00  0.00     0.180 C 
ATOM     31  N   LIG d   1      10.101  18.032   0.682  0.00  0.00    -0.331 N 
ATOM     32  N   LIG d   1       8.031  17.103   1.094  0.00  0.00    -0.272 NA
ATOM     33  H   LIG d   1      11.095  17.835   0.661  0.00  0.00     0.168 HD
ATOM     34  H   LIG d   1       7.588  16.184   1.186  0.00  0.00     0.127 HD
ATOM     35  H   LIG d   1       7.727  17.561   0.243  0.00  0.00     0.127 HD
ATOM     36  H   LIG d   1      10.046  13.048   2.746  0.00  0.00     0.127 HD
ATOM     37  H   LIG d   1      11.136  14.327   2.802  0.00  0.00     0.127 HD
BRANCH  31  38
ATOM     38  C   LIG d   1       9.822  19.413   0.710  0.00  0.00     0.034 A 
ATOM     39  C   LIG d   1      10.366  20.175   1.758  0.00  0.00     0.031 A 
ATOM     40  C   LIG d   1      10.178  21.560   1.823  0.00  0.00     0.026 A 
ATOM     41  C   LIG d   1       9.446  22.202   0.830  0.00  0.00     0.034 A 
ATOM     42 CL   LIG d   1       9.215  23.905   0.902  0.00  0.00    -0.084 Cl
ATOM     43  C   LIG d   1       8.904  21.471  -0.221  0.00  0.00     0.026 A 
ATOM     44  C   LIG d   1       9.096  20.086  -0.281  0.00  0.00     0.031 A 
ENDBRANCH  31  38
ENDBRANCH  25  26
ENDBRANCH  24  25
ENDBRANCH   1  24
TORSDOF 9
ENDMDL
MODEL 2
REMARK VINA RESULT:      -7.1      6.413     10.368
REMARK  9 active torsions:
REMARK  status: ('A' for Active; 'I' for Inactive)
REMARK    1  A    between atoms: N_3  and  C_17 
REMARK    2  A    between atoms: N_4  and  C_18 
REMARK       I    between atoms: N_5  and  C_19 
REMARK       I    between atoms: N_6  and  C_20 
REMARK       I    between atoms: N_7  and  C_19 
REMARK       I    between atoms: N_8  and  C_20 
REMARK       I    between atoms: N_9  and  C_21 
REMARK    3  A    between atoms: N_9  and  C_23 
REMARK       I    between atoms: N_10  and  C_22 
REMARK    4  A    between atoms: N_10  and  C_24 
REMARK       I    between atoms: N_11  and  C_21 
REMARK       I    between atoms: N_12  and  C_22 
REMARK    5  A    between atoms: C_13  and  C_14 
REMARK    6  A    between atoms: C_13  and  C_15 
REMARK    7  A    between atoms: C_14  and  C_16 
REMARK    8  A    between atoms: C_15  and  C_17 
REMARK    9  A    between atoms: C_16  and  C_18 
ROOT
ATOM      1  C   LIG d   1       8.307  12.910   3.946  0.00  0.00     0.002 C 
ENDROOT
BRANCH   1   2
ATOM      2  C   LIG d   1       8.644  13.806   2.753  0.00  0.00     0.002 C 
BRANCH   2   3
ATOM      3  C   LIG d   1       9.993  14.498   2.944  0.00  0.00     0.022 C 
BRANCH   3   4
ATOM      4  C   LIG d   1       9.837  15.820   3.692  0.00  0.00     0.152 C 
BRANCH   4   5
ATOM      5  N   LIG d   1       9.938  16.933   2.752  0.00  0.00    -0.261 NA
ATOM      6  C   LIG d   1       9.048  17.859   2.753  0.00  0.00     0.197 C 
ATOM      7  N   LIG d   1       9.188  18.891   1.875  0.00  0.00    -0.190 NA
ATOM      8  N   LIG d   1       7.975  17.972   3.578  0.00  0.00    -0.271 NA
ATOM      9  C   LIG d   1       9.607  18.702   0.666  0.00  0.00     0.180 C 
ATOM     10  N   LIG d   1       9.756  19.682  -0.281  0.00  0.00    -0.331 N 
ATOM     11  N   LIG d   1       9.942  17.499   0.105  0.00  0.00    -0.272 NA
ATOM     12  H   LIG d   1       9.566  19.361  -1.221  0.00  0.00     0.168 HD
ATOM     13  H   LIG d   1      10.034  16.803   0.852  0.00  0.00     0.127 HD
ATOM     14  H   LIG d   1      10.827  17.549  -0.386  0.00  0.00     0.127 HD
ATOM     15  H   LIG d   1       8.151  17.685   4.528  0.00  0.00     0.127 HD
ATOM     16  H   LIG d   1       7.601  18.912   3.527  0.00  0.00     0.127 HD
BRANCH  10  17
ATOM     17  C   LIG d   1       9.685  21.075  -0.105  0.00  0.00     0.034 A 
ATOM     18  C   LIG d   1       8.601  21.779  -0.653  0.00  0.00     0.031 A 
ATOM     19  C   LIG d   1       8.499  23.168  -0.522  0.00  0.00     0.026 A 
ATOM     20  C   LIG d   1       9.491  23.873   0.153  0.00  0.00     0.034 A 
ATOM     21 CL   LIG d   1       9.374  25.581   0.312  0.00  0.00    -0.084 Cl
ATOM     22  C   LIG d   1      10.582  23.200   0.692  0.00  0.00     0.026 A 
ATOM     23  C   LIG d   1      10.676  21.811   0.560  0.00  0.00     0.031 A 
ENDBRANCH  10  17
ENDBRANCH   4   5
ENDBRANCH   3   4
ENDBRANCH   2   3
ENDBRANCH   1   2
BRANCH   1  24
ATOM     24  C   LIG d   1       7.923  11.502   3.494  0.00  0.00     0.022 C 
BRANCH  24  25
ATOM     25  C   LIG d   1       6.418  11.386   3.257  0.00  0.00     0.152 C 
BRANCH  25  26
ATOM     26  N   LIG d   1       5.986   9.999   3.410  0.00  0.00    -0.261 NA
ATOM     27  C   LIG d   1       5.541   9.344   2.397  0.00  0.00     0.197 C 
ATOM     28  N   LIG d   1       5.146   8.048   2.564  0.00  0.00    -0.190 NA
ATOM     29  N   LIG d   1       5.462   9.786   1.115  0.00  0.00    -0.271 NA
ATOM     30  C   LIG d   1       4.680   7.607   3.694  0.00  0.00     0.180 C 
ATOM     31  N   LIG d   1       4.348   6.284   3.773  0.00  0.00    -0.331 N 
ATOM     32  N   LIG d   1       4.553   8.312   4.852  0.00  0.00    -0.272 NA
ATOM     33  H   LIG d   1       4.555   5.793   2.911  0.00  0.00     0.168 HD
ATOM     34  H   LIG d   1       5.081   9.187   4.783  0.00  0.00     0.127 HD
ATOM     35  H   LIG d   1       4.851   7.779   5.660  0.00  0.00     0.127 HD
ATOM     36  H   LIG d   1       6.201  10.415   0.840  0.00  0.00     0.127 HD
ATOM     37  H   LIG d   1       5.358   9.006   0.478  0.00  0.00     0.127 HD
BRANCH  31  38
ATOM     38  C   LIG d   1       3.378   5.625   4.554  0.00  0.00     0.034 A 
ATOM     39  C   LIG d   1       2.178   5.242   3.929  0.00  0.00     0.031 A 
ATOM     40  C   LIG d   1       1.190   4.536   4.625  0.00  0.00     0.026 A 
ATOM     41  C   LIG d   1       1.396   4.198   5.957  0.00  0.00     0.034 A 
ATOM     42 CL   LIG d   1       0.187   3.326   6.816  0.00  0.00    -0.084 Cl
ATOM     43  C   LIG d   1       2.578   4.558   6.595  0.00  0.00     0.026 A 
ATOM     44  C   LIG d   1       3.563   5.264   5.894  0.00  0.00     0.031 A 
ENDBRANCH  31  38
ENDBRANCH  25  26
ENDBRANCH  24  25
ENDBRANCH   1  24
TORSDOF 9
ENDMDL
MODEL 3
REMARK VINA RESULT:      -7.1      6.840     10.775
REMARK  9 active torsions:
REMARK  status: ('A' for Active; 'I' for Inactive)
REMARK    1  A    between atoms: N_3  and  C_17 
REMARK    2  A    between atoms: N_4  and  C_18 
REMARK       I    between atoms: N_5  and  C_19 
REMARK       I    between atoms: N_6  and  C_20 
REMARK       I    between atoms: N_7  and  C_19 
REMARK       I    between atoms: N_8  and  C_20 
REMARK       I    between atoms: N_9  and  C_21 
REMARK    3  A    between atoms: N_9  and  C_23 
REMARK       I    between atoms: N_10  and  C_22 
REMARK    4  A    between atoms: N_10  and  C_24 
REMARK       I    between atoms: N_11  and  C_21 
REMARK       I    between atoms: N_12  and  C_22 
REMARK    5  A    between atoms: C_13  and  C_14 
REMARK    6  A    between atoms: C_13  and  C_15 
REMARK    7  A    between atoms: C_14  and  C_16 
REMARK    8  A    between atoms: C_15  and  C_17 
REMARK    9  A    between atoms: C_16  and  C_18 
ROOT
ATOM      1  C   LIG d   1       5.569  13.025   2.207  0.00  0.00     0.002 C 
ENDROOT
BRANCH   1   2
ATOM      2  C   LIG d   1       6.583  12.001   1.695  0.00  0.00     0.002 C 
BRANCH   2   3
ATOM      3  C   LIG d   1       6.143  10.574   2.022  0.00  0.00     0.022 C 
BRANCH   3   4
ATOM      4  C   LIG d   1       4.621  10.452   2.029  0.00  0.00     0.152 C 
BRANCH   4   5
ATOM      5  N   LIG d   1       4.236   9.125   2.503  0.00  0.00    -0.261 NA
ATOM      6  C   LIG d   1       4.062   8.916   3.759  0.00  0.00     0.197 C 
ATOM      7  N   LIG d   1       3.684   7.670   4.159  0.00  0.00    -0.190 NA
ATOM      8  N   LIG d   1       4.163   9.819   4.768  0.00  0.00    -0.271 NA
ATOM      9  C   LIG d   1       4.168   6.604   3.612  0.00  0.00     0.180 C 
ATOM     10  N   LIG d   1       3.854   5.319   3.970  0.00  0.00    -0.331 N 
ATOM     11  N   LIG d   1       5.097   6.562   2.608  0.00  0.00    -0.272 NA
ATOM     12  H   LIG d   1       4.626   4.675   3.868  0.00  0.00     0.168 HD
ATOM     13  H   LIG d   1       5.180   7.497   2.197  0.00  0.00     0.127 HD
ATOM     14  H   LIG d   1       4.824   5.920   1.872  0.00  0.00     0.127 HD
ATOM     15  H   LIG d   1       3.817  10.738   4.538  0.00  0.00     0.127 HD
ATOM     16  H   LIG d   1       3.729   9.448   5.604  0.00  0.00     0.127 HD
BRANCH  10  17
ATOM     17  C   LIG d   1       2.833   4.886   4.835  0.00  0.00     0.034 A 
ATOM     18  C   LIG d   1       1.580   4.550   4.298  0.00  0.00     0.031 A 
ATOM     19  C   LIG d   1       0.527   4.135   5.122  0.00  0.00     0.026 A 
ATOM     20  C   LIG d   1       0.715   4.062   6.498  0.00  0.00     0.034 A 
ATOM     21 CL   LIG d   1      -0.577   3.557   7.515  0.00  0.00    -0.084 Cl
ATOM     22  C   LIG d   1       1.942   4.402   7.054  0.00  0.00     0.026 A 
ATOM     23  C   LIG d   1       2.991   4.814   6.226  0.00  0.00     0.031 A 
ENDBRANCH  10  17
ENDBRANCH   4   5
ENDBRANCH   3   4
ENDBRANCH   2   3
ENDBRANCH   1   2
BRANCH   1  24
ATOM     24  C   LIG d   1       6.115  13.798   3.407  0.00  0.00     0.022 C 
BRANCH  24  25
ATOM     25  C   LIG d   1       7.642  13.747   3.452  0.00  0.00     0.152 C 
BRANCH  25  26
ATOM     26  N   LIG d   1       8.209  14.790   2.602  0.00  0.00    -0.261 NA
ATOM     27  C   LIG d   1       9.480  14.860   2.424  0.00  0.00     0.197 C 
ATOM     28  N   LIG d   1       9.988  15.843   1.623  0.00  0.00    -0.190 NA
ATOM     29  N   LIG d   1      10.417  14.007   2.914  0.00  0.00    -0.271 NA
ATOM     30  C   LIG d   1       9.394  16.989   1.474  0.00  0.00     0.180 C 
ATOM     31  N   LIG d   1       9.959  17.892   0.620  0.00  0.00    -0.331 N 
ATOM     32  N   LIG d   1       8.209  17.368   2.026  0.00  0.00    -0.272 NA
ATOM     33  H   LIG d   1      10.784  17.515   0.166  0.00  0.00     0.168 HD
ATOM     34  H   LIG d   1       7.727  16.549   2.406  0.00  0.00     0.127 HD
ATOM     35  H   LIG d   1       7.616  17.857   1.366  0.00  0.00     0.127 HD
ATOM     36  H   LIG d   1      10.116  13.047   2.987  0.00  0.00     0.127 HD
ATOM     37  H   LIG d   1      11.287  14.105   2.404  0.00  0.00     0.127 HD
BRANCH  31  38
ATOM     38  C   LIG d   1       9.941  19.301   0.627  0.00  0.00     0.034 A 
ATOM     39  C   LIG d   1       9.068  19.954  -0.260  0.00  0.00     0.031 A 
ATOM     40  C   LIG d   1       8.955  21.349  -0.273  0.00  0.00     0.026 A 
ATOM     41  C   LIG d   1       9.713  22.109   0.611  0.00  0.00     0.034 A 
ATOM     42 CL   LIG d   1       9.575  23.823   0.603  0.00  0.00    -0.084 Cl
ATOM     43  C   LIG d   1      10.578  21.485   1.503  0.00  0.00     0.026 A 
ATOM     44  C   LIG d   1      10.686  20.090   1.512  0.00  0.00     0.031 A 
ENDBRANCH  31  38
ENDBRANCH  25  26
ENDBRANCH  24  25
ENDBRANCH   1  24
TORSDOF 9
ENDMDL
MODEL 4
REMARK VINA RESULT:      -6.6      1.919      2.420
REMARK  9 active torsions:
REMARK  status: ('A' for Active; 'I' for Inactive)
REMARK    1  A    between atoms: N_3  and  C_17 
REMARK    2  A    between atoms: N_4  and  C_18 
REMARK       I    between atoms: N_5  and  C_19 
REMARK       I    between atoms: N_6  and  C_20 
REMARK       I    between atoms: N_7  and  C_19 
REMARK       I    between atoms: N_8  and  C_20 
REMARK       I    between atoms: N_9  and  C_21 
REMARK    3  A    between atoms: N_9  and  C_23 
REMARK       I    between atoms: N_10  and  C_22 
REMARK    4  A    between atoms: N_10  and  C_24 
REMARK       I    between atoms: N_11  and  C_21 
REMARK       I    between atoms: N_12  and  C_22 
REMARK    5  A    between atoms: C_13  and  C_14 
REMARK    6  A    between atoms: C_13  and  C_15 
REMARK    7  A    between atoms: C_14  and  C_16 
REMARK    8  A    between atoms: C_15  and  C_17 
REMARK    9  A    between atoms: C_16  and  C_18 
ROOT
ATOM      1  C   LIG d   1       6.379  13.151   4.261  0.00  0.00     0.002 C 
ENDROOT
BRANCH   1   2
ATOM      2  C   LIG d   1       7.653  13.180   5.105  0.00  0.00     0.002 C 
BRANCH   2   3
ATOM      3  C   LIG d   1       7.420  13.896   6.435  0.00  0.00     0.022 C 
BRANCH   3   4
ATOM      4  C   LIG d   1       8.638  14.724   6.840  0.00  0.00     0.152 C 
BRANCH   4   5
ATOM      5  N   LIG d   1       8.774  15.870   5.945  0.00  0.00    -0.261 NA
ATOM      6  C   LIG d   1       8.904  17.053   6.428  0.00  0.00     0.197 C 
ATOM      7  N   LIG d   1       9.048  18.093   5.561  0.00  0.00    -0.190 NA
ATOM      8  N   LIG d   1       8.966  17.406   7.738  0.00  0.00    -0.271 NA
ATOM      9  C   LIG d   1       8.379  18.154   4.456  0.00  0.00     0.180 C 
ATOM     10  N   LIG d   1       8.454  19.174   3.543  0.00  0.00    -0.331 N 
ATOM     11  N   LIG d   1       7.461  17.241   4.016  0.00  0.00    -0.272 NA
ATOM     12  H   LIG d   1       7.578  19.353   3.073  0.00  0.00     0.168 HD
ATOM     13  H   LIG d   1       7.551  16.388   4.577  0.00  0.00     0.127 HD
ATOM     14  H   LIG d   1       7.614  16.993   3.045  0.00  0.00     0.127 HD
ATOM     15  H   LIG d   1       9.474  16.757   8.319  0.00  0.00     0.127 HD
ATOM     16  H   LIG d   1       9.324  18.351   7.821  0.00  0.00     0.127 HD
BRANCH  10  17
ATOM     17  C   LIG d   1       9.376  20.234   3.501  0.00  0.00     0.034 A 
ATOM     18  C   LIG d   1       8.904  21.554   3.561  0.00  0.00     0.031 A 
ATOM     19  C   LIG d   1       9.783  22.642   3.501  0.00  0.00     0.026 A 
ATOM     20  C   LIG d   1      11.149  22.418   3.368  0.00  0.00     0.034 A 
ATOM     21 CL   LIG d   1      12.233  23.752   3.289  0.00  0.00    -0.084 Cl
ATOM     22  C   LIG d   1      11.640  21.120   3.292  0.00  0.00     0.026 A 
ATOM     23  C   LIG d   1      10.757  20.038   3.356  0.00  0.00     0.031 A 
ENDBRANCH  10  17
ENDBRANCH   4   5
ENDBRANCH   3   4
ENDBRANCH   2   3
ENDBRANCH   1   2
BRANCH   1  24
ATOM     24  C   LIG d   1       6.547  13.957   2.973  0.00  0.00     0.022 C 
BRANCH  24  25
ATOM     25  C   LIG d   1       7.945  13.777   2.384  0.00  0.00     0.152 C 
BRANCH  25  26
ATOM     26  N   LIG d   1       8.346  14.977   1.654  0.00  0.00    -0.261 NA
ATOM     27  C   LIG d   1       9.524  15.466   1.810  0.00  0.00     0.197 C 
ATOM     28  N   LIG d   1       9.878  16.587   1.115  0.00  0.00    -0.190 NA
ATOM     29  N   LIG d   1      10.523  14.952   2.576  0.00  0.00    -0.271 NA
ATOM     30  C   LIG d   1       9.006  17.479   0.751  0.00  0.00     0.180 C 
ATOM     31  N   LIG d   1       9.451  18.546   0.024  0.00  0.00    -0.331 N 
ATOM     32  N   LIG d   1       7.660  17.429   0.953  0.00  0.00    -0.272 NA
ATOM     33  H   LIG d   1      10.443  18.476  -0.176  0.00  0.00     0.168 HD
ATOM     34  H   LIG d   1       7.388  16.485   1.239  0.00  0.00     0.127 HD
ATOM     35  H   LIG d   1       7.138  17.717   0.134  0.00  0.00     0.127 HD
ATOM     36  H   LIG d   1      10.542  13.945   2.621  0.00  0.00     0.127 HD
ATOM     37  H   LIG d   1      11.415  15.348   2.305  0.00  0.00     0.127 HD
BRANCH  31  38
ATOM     38  C   LIG d   1       8.974  19.869  -0.054  0.00  0.00     0.034 A 
ATOM     39  C   LIG d   1       9.919  20.909  -0.102  0.00  0.00     0.031 A 
ATOM     40  C   LIG d   1       9.523  22.245  -0.234  0.00  0.00     0.026 A 
ATOM     41  C   LIG d   1       8.171  22.555  -0.326  0.00  0.00     0.034 A 
ATOM     42 CL   LIG d   1       7.678  24.195  -0.492  0.00  0.00    -0.084 Cl
ATOM     43  C   LIG d   1       7.217  21.544  -0.288  0.00  0.00     0.026 A 
ATOM     44  C   LIG d   1       7.620  20.210  -0.157  0.00  0.00     0.031 A 
ENDBRANCH  31  38
ENDBRANCH  25  26
ENDBRANCH  24  25
ENDBRANCH   1  24
TORSDOF 9
ENDMDL
MODEL 5
REMARK VINA RESULT:      -6.5      6.875     10.986
REMARK  9 active torsions:
REMARK  status: ('A' for Active; 'I' for Inactive)
REMARK    1  A    between atoms: N_3  and  C_17 
REMARK    2  A    between atoms: N_4  and  C_18 
REMARK       I    between atoms: N_5  and  C_19 
REMARK       I    between atoms: N_6  and  C_20 
REMARK       I    between atoms: N_7  and  C_19 
REMARK       I    between atoms: N_8  and  C_20 
REMARK       I    between atoms: N_9  and  C_21 
REMARK    3  A    between atoms: N_9  and  C_23 
REMARK       I    between atoms: N_10  and  C_22 
REMARK    4  A    between atoms: N_10  and  C_24 
REMARK       I    between atoms: N_11  and  C_21 
REMARK       I    between atoms: N_12  and  C_22 
REMARK    5  A    between atoms: C_13  and  C_14 
REMARK    6  A    between atoms: C_13  and  C_15 
REMARK    7  A    between atoms: C_14  and  C_16 
REMARK    8  A    between atoms: C_15  and  C_17 
REMARK    9  A    between atoms: C_16  and  C_18 
ROOT
ATOM      1  C   LIG d   1       6.004  12.641   3.261  0.00  0.00     0.002 C 
ENDROOT
BRANCH   1   2
ATOM      2  C   LIG d   1       6.746  11.841   4.332  0.00  0.00     0.002 C 
BRANCH   2   3
ATOM      3  C   LIG d   1       5.825  10.817   4.996  0.00  0.00     0.022 C 
BRANCH   3   4
ATOM      4  C   LIG d   1       6.397   9.405   4.889  0.00  0.00     0.152 C 
BRANCH   4   5
ATOM      5  N   LIG d   1       5.450   8.542   4.188  0.00  0.00    -0.261 NA
ATOM      6  C   LIG d   1       4.717   7.721   4.849  0.00  0.00     0.197 C 
ATOM      7  N   LIG d   1       3.832   6.948   4.161  0.00  0.00    -0.190 NA
ATOM      8  N   LIG d   1       4.674   7.553   6.196  0.00  0.00    -0.271 NA
ATOM      9  C   LIG d   1       4.132   6.427   3.016  0.00  0.00     0.180 C 
ATOM     10  N   LIG d   1       3.306   5.623   2.272  0.00  0.00    -0.331 N 
ATOM     11  N   LIG d   1       5.325   6.552   2.359  0.00  0.00    -0.272 NA
ATOM     12  H   LIG d   1       3.802   4.916   1.749  0.00  0.00     0.168 HD
ATOM     13  H   LIG d   1       5.863   7.307   2.796  0.00  0.00     0.127 HD
ATOM     14  H   LIG d   1       5.192   6.788   1.382  0.00  0.00     0.127 HD
ATOM     15  H   LIG d   1       4.767   8.407   6.724  0.00  0.00     0.127 HD
ATOM     16  H   LIG d   1       3.840   7.038   6.450  0.00  0.00     0.127 HD
BRANCH  10  17
ATOM     17  C   LIG d   1       1.940   5.360   2.477  0.00  0.00     0.034 A 
ATOM     18  C   LIG d   1       0.996   5.934   1.610  0.00  0.00     0.031 A 
ATOM     19  C   LIG d   1      -0.375   5.717   1.787  0.00  0.00     0.026 A 
ATOM     20  C   LIG d   1      -0.819   4.931   2.845  0.00  0.00     0.034 A 
ATOM     21 CL   LIG d   1      -2.504   4.667   3.070  0.00  0.00    -0.084 Cl
ATOM     22  C   LIG d   1       0.095   4.364   3.725  0.00  0.00     0.026 A 
ATOM     23  C   LIG d   1       1.464   4.581   3.541  0.00  0.00     0.031 A 
ENDBRANCH  10  17
ENDBRANCH   4   5
ENDBRANCH   3   4
ENDBRANCH   2   3
ENDBRANCH   1   2
BRANCH   1  24
ATOM     24  C   LIG d   1       6.360  14.126   3.330  0.00  0.00     0.022 C 
BRANCH  24  25
ATOM     25  C   LIG d   1       7.871  14.331   3.433  0.00  0.00     0.152 C 
BRANCH  25  26
ATOM     26  N   LIG d   1       8.306  15.369   2.502  0.00  0.00    -0.261 NA
ATOM     27  C   LIG d   1       9.542  15.454   2.159  0.00  0.00     0.197 C 
ATOM     28  N   LIG d   1       9.925  16.431   1.286  0.00  0.00    -0.190 NA
ATOM     29  N   LIG d   1      10.548  14.622   2.535  0.00  0.00    -0.271 NA
ATOM     30  C   LIG d   1       9.298  17.566   1.199  0.00  0.00     0.180 C 
ATOM     31  N   LIG d   1       9.733  18.464   0.267  0.00  0.00    -0.331 N 
ATOM     32  N   LIG d   1       8.190  17.937   1.897  0.00  0.00    -0.272 NA
ATOM     33  H   LIG d   1      10.498  18.092  -0.285  0.00  0.00     0.168 HD
ATOM     34  H   LIG d   1       7.774  17.117   2.347  0.00  0.00     0.127 HD
ATOM     35  H   LIG d   1       7.508  18.407   1.313  0.00  0.00     0.127 HD
ATOM     36  H   LIG d   1      10.275  13.660   2.658  0.00  0.00     0.127 HD
ATOM     37  H   LIG d   1      11.342  14.724   1.914  0.00  0.00     0.127 HD
BRANCH  31  38
ATOM     38  C   LIG d   1       9.693  19.873   0.258  0.00  0.00     0.034 A 
ATOM     39  C   LIG d   1      10.671  20.565   0.992  0.00  0.00     0.031 A 
ATOM     40  C   LIG d   1      10.729  21.963   0.988  0.00  0.00     0.026 A 
ATOM     41  C   LIG d   1       9.808  22.687   0.239  0.00  0.00     0.034 A 
ATOM     42 CL   LIG d   1       9.876  24.406   0.226  0.00  0.00    -0.084 Cl
ATOM     43  C   LIG d   1       8.835  22.025  -0.502  0.00  0.00     0.026 A 
ATOM     44  C   LIG d   1       8.783  20.626  -0.494  0.00  0.00     0.031 A 
ENDBRANCH  31  38
ENDBRANCH  25  26
ENDBRANCH  24  25
ENDBRANCH   1  24
TORSDOF 9
ENDMDL
MODEL 6
REMARK VINA RESULT:      -6.3      6.702     10.465
REMARK  9 active torsions:
REMARK  status: ('A' for Active; 'I' for Inactive)
REMARK    1  A    between atoms: N_3  and  C_17 
REMARK    2  A    between atoms: N_4  and  C_18 
REMARK       I    between atoms: N_5  and  C_19 
REMARK       I    between atoms: N_6  and  C_20 
REMARK       I    between atoms: N_7  and  C_19 
REMARK       I    between atoms: N_8  and  C_20 
REMARK       I    between atoms: N_9  and  C_21 
REMARK    3  A    between atoms: N_9  and  C_23 
REMARK       I    between atoms: N_10  and  C_22 
REMARK    4  A    between atoms: N_10  and  C_24 
REMARK       I    between atoms: N_11  and  C_21 
REMARK       I    between atoms: N_12  and  C_22 
REMARK    5  A    between atoms: C_13  and  C_14 
REMARK    6  A    between atoms: C_13  and  C_15 
REMARK    7  A    between atoms: C_14  and  C_16 
REMARK    8  A    between atoms: C_15  and  C_17 
REMARK    9  A    between atoms: C_16  and  C_18 
ROOT
ATOM      1  C   LIG d   1       3.661  29.353  -0.481  0.00  0.00     0.002 C 
ENDROOT
BRANCH   1   2
ATOM      2  C   LIG d   1       4.839  28.616   0.159  0.00  0.00     0.002 C 
BRANCH   2   3
ATOM      3  C   LIG d   1       6.121  29.444   0.076  0.00  0.00     0.022 C 
BRANCH   3   4
ATOM      4  C   LIG d   1       7.044  28.927  -1.026  0.00  0.00     0.152 C 
BRANCH   4   5
ATOM      5  N   LIG d   1       7.508  27.584  -0.689  0.00  0.00    -0.261 NA
ATOM      6  C   LIG d   1       8.693  27.410  -0.224  0.00  0.00     0.197 C 
ATOM      7  N   LIG d   1       9.082  26.145   0.097  0.00  0.00    -0.190 NA
ATOM      8  N   LIG d   1       9.623  28.364   0.043  0.00  0.00    -0.271 NA
ATOM      9  C   LIG d   1       8.756  25.129  -0.633  0.00  0.00     0.180 C 
ATOM     10  N   LIG d   1       9.124  23.830  -0.388  0.00  0.00    -0.331 N 
ATOM     11  N   LIG d   1       8.022  25.164  -1.786  0.00  0.00    -0.272 NA
ATOM     12  H   LIG d   1       9.267  23.291  -1.230  0.00  0.00     0.168 HD
ATOM     13  H   LIG d   1       7.573  26.082  -1.862  0.00  0.00     0.127 HD
ATOM     14  H   LIG d   1       7.293  24.459  -1.788  0.00  0.00     0.127 HD
ATOM     15  H   LIG d   1       9.244  29.218   0.423  0.00  0.00     0.127 HD
ATOM     16  H   LIG d   1      10.351  27.977   0.632  0.00  0.00     0.127 HD
BRANCH  10  17
ATOM     17  C   LIG d   1       9.738  23.306   0.762  0.00  0.00     0.034 A 
ATOM     18  C   LIG d   1      10.930  22.575   0.629  0.00  0.00     0.031 A 
ATOM     19  C   LIG d   1      11.565  22.016   1.743  0.00  0.00     0.026 A 
ATOM     20  C   LIG d   1      11.006  22.172   3.007  0.00  0.00     0.034 A 
ATOM     21 CL   LIG d   1      11.780  21.482   4.379  0.00  0.00    -0.084 Cl
ATOM     22  C   LIG d   1       9.819  22.879   3.164  0.00  0.00     0.026 A 
ATOM     23  C   LIG d   1       9.191  23.438   2.046  0.00  0.00     0.031 A 
ENDBRANCH  10  17
ENDBRANCH   4   5
ENDBRANCH   3   4
ENDBRANCH   2   3
ENDBRANCH   1   2
BRANCH   1  24
ATOM     24  C   LIG d   1       2.439  28.444  -0.606  0.00  0.00     0.022 C 
BRANCH  24  25
ATOM     25  C   LIG d   1       2.341  27.833  -2.003  0.00  0.00     0.152 C 
BRANCH  25  26
ATOM     26  N   LIG d   1       2.876  26.475  -2.001  0.00  0.00    -0.261 NA
ATOM     27  C   LIG d   1       2.088  25.469  -1.857  0.00  0.00     0.197 C 
ATOM     28  N   LIG d   1       2.611  24.207  -1.861  0.00  0.00    -0.190 NA
ATOM     29  N   LIG d   1       0.734  25.506  -1.751  0.00  0.00    -0.271 NA
ATOM     30  C   LIG d   1       3.823  23.960  -1.462  0.00  0.00     0.180 C 
ATOM     31  N   LIG d   1       4.268  22.671  -1.541  0.00  0.00    -0.331 N 
ATOM     32  N   LIG d   1       4.740  24.871  -1.036  0.00  0.00    -0.272 NA
ATOM     33  H   LIG d   1       3.574  22.059  -1.955  0.00  0.00     0.168 HD
ATOM     34  H   LIG d   1       4.427  25.815  -1.278  0.00  0.00     0.127 HD
ATOM     35  H   LIG d   1       5.662  24.693  -1.415  0.00  0.00     0.127 HD
ATOM     36  H   LIG d   1       0.290  26.238  -2.283  0.00  0.00     0.127 HD
ATOM     37  H   LIG d   1       0.339  24.593  -1.939  0.00  0.00     0.127 HD
BRANCH  31  38
ATOM     38  C   LIG d   1       5.208  21.973  -0.757  0.00  0.00     0.034 A 
ATOM     39  C   LIG d   1       6.330  21.426  -1.404  0.00  0.00     0.031 A 
ATOM     40  C   LIG d   1       7.333  20.767  -0.685  0.00  0.00     0.026 A 
ATOM     41  C   LIG d   1       7.227  20.652   0.697  0.00  0.00     0.034 A 
ATOM     42 CL   LIG d   1       8.459  19.846   1.586  0.00  0.00    -0.084 Cl
ATOM     43  C   LIG d   1       6.130  21.191   1.360  0.00  0.00     0.026 A 
ATOM     44  C   LIG d   1       5.131  21.851   0.636  0.00  0.00     0.031 A 
ENDBRANCH  31  38
ENDBRANCH  25  26
ENDBRANCH  24  25
ENDBRANCH   1  24
TORSDOF 9
ENDMDL
MODEL 7
REMARK VINA RESULT:      -6.1      2.295      3.647
REMARK  9 active torsions:
REMARK  status: ('A' for Active; 'I' for Inactive)
REMARK    1  A    between atoms: N_3  and  C_17 
REMARK    2  A    between atoms: N_4  and  C_18 
REMARK       I    between atoms: N_5  and  C_19 
REMARK       I    between atoms: N_6  and  C_20 
REMARK       I    between atoms: N_7  and  C_19 
REMARK       I    between atoms: N_8  and  C_20 
REMARK       I    between atoms: N_9  and  C_21 
REMARK    3  A    between atoms: N_9  and  C_23 
REMARK       I    between atoms: N_10  and  C_22 
REMARK    4  A    between atoms: N_10  and  C_24 
REMARK       I    between atoms: N_11  and  C_21 
REMARK       I    between atoms: N_12  and  C_22 
REMARK    5  A    between atoms: C_13  and  C_14 
REMARK    6  A    between atoms: C_13  and  C_15 
REMARK    7  A    between atoms: C_14  and  C_16 
REMARK    8  A    between atoms: C_15  and  C_17 
REMARK    9  A    between atoms: C_16  and  C_18 
ROOT
ATOM      1  C   LIG d   1       9.116  15.754   7.333  0.00  0.00     0.002 C 
ENDROOT
BRANCH   1   2
ATOM      2  C   LIG d   1       9.950  15.902   8.606  0.00  0.00     0.002 C 
BRANCH   2   3
ATOM      3  C   LIG d   1      11.336  16.467   8.299  0.00  0.00     0.022 C 
BRANCH   3   4
ATOM      4  C   LIG d   1      11.395  17.969   8.573  0.00  0.00     0.152 C 
BRANCH   4   5
ATOM      5  N   LIG d   1      11.354  18.702   7.311  0.00  0.00    -0.261 NA
ATOM      6  C   LIG d   1      10.391  19.518   7.071  0.00  0.00     0.197 C 
ATOM      7  N   LIG d   1      10.398  20.198   5.891  0.00  0.00    -0.190 NA
ATOM      8  N   LIG d   1       9.357  19.837   7.892  0.00  0.00    -0.271 NA
ATOM      9  C   LIG d   1      10.767  19.636   4.787  0.00  0.00     0.180 C 
ATOM     10  N   LIG d   1      10.784  20.245   3.558  0.00  0.00    -0.331 N 
ATOM     11  N   LIG d   1      11.171  18.338   4.635  0.00  0.00    -0.272 NA
ATOM     12  H   LIG d   1      10.572  19.615   2.797  0.00  0.00     0.168 HD
ATOM     13  H   LIG d   1      11.360  17.943   5.561  0.00  0.00     0.127 HD
ATOM     14  H   LIG d   1      12.022  18.272   4.088  0.00  0.00     0.127 HD
ATOM     15  H   LIG d   1       9.606  19.900   8.867  0.00  0.00     0.127 HD
ATOM     16  H   LIG d   1       8.904  20.680   7.560  0.00  0.00     0.127 HD
BRANCH  10  17
ATOM     17  C   LIG d   1      10.607  21.609   3.265  0.00  0.00     0.034 A 
ATOM     18  C   LIG d   1       9.304  22.123   3.166  0.00  0.00     0.031 A 
ATOM     19  C   LIG d   1       9.078  23.469   2.855  0.00  0.00     0.026 A 
ATOM     20  C   LIG d   1      10.158  24.315   2.626  0.00  0.00     0.034 A 
ATOM     21 CL   LIG d   1       9.886  25.968   2.238  0.00  0.00    -0.084 Cl
ATOM     22  C   LIG d   1      11.457  23.826   2.704  0.00  0.00     0.026 A 
ATOM     23  C   LIG d   1      11.676  22.481   3.019  0.00  0.00     0.031 A 
ENDBRANCH  10  17
ENDBRANCH   4   5
ENDBRANCH   3   4
ENDBRANCH   2   3
ENDBRANCH   1   2
BRANCH   1  24
ATOM     24  C   LIG d   1      10.006  15.620   6.098  0.00  0.00     0.022 C 
BRANCH  24  25
ATOM     25  C   LIG d   1       9.361  14.721   5.044  0.00  0.00     0.152 C 
BRANCH  25  26
ATOM     26  N   LIG d   1       9.146  15.464   3.806  0.00  0.00    -0.261 NA
ATOM     27  C   LIG d   1       9.938  15.301   2.806  0.00  0.00     0.197 C 
ATOM     28  N   LIG d   1       9.715  16.005   1.658  0.00  0.00    -0.190 NA
ATOM     29  N   LIG d   1      10.984  14.436   2.731  0.00  0.00    -0.271 NA
ATOM     30  C   LIG d   1       9.143  17.171   1.662  0.00  0.00     0.180 C 
ATOM     31  N   LIG d   1       8.929  17.779   0.458  0.00  0.00    -0.331 N 
ATOM     32  N   LIG d   1       8.658  17.835   2.747  0.00  0.00    -0.272 NA
ATOM     33  H   LIG d   1       9.224  17.195  -0.316  0.00  0.00     0.168 HD
ATOM     34  H   LIG d   1       8.601  17.196   3.545  0.00  0.00     0.127 HD
ATOM     35  H   LIG d   1       7.756  18.259   2.566  0.00  0.00     0.127 HD
ATOM     36  H   LIG d   1      10.850  13.570   3.230  0.00  0.00     0.127 HD
ATOM     37  H   LIG d   1      11.254  14.291   1.766  0.00  0.00     0.127 HD
BRANCH  31  38
ATOM     38  C   LIG d   1       8.871  19.145   0.114  0.00  0.00     0.034 A 
ATOM     39  C   LIG d   1       7.607  19.712  -0.126  0.00  0.00     0.031 A 
ATOM     40  C   LIG d   1       7.465  21.072  -0.419  0.00  0.00     0.026 A 
ATOM     41  C   LIG d   1       8.591  21.886  -0.469  0.00  0.00     0.034 A 
ATOM     42 CL   LIG d   1       8.423  23.561  -0.824  0.00  0.00    -0.084 Cl
ATOM     43  C   LIG d   1       9.852  21.351  -0.227  0.00  0.00     0.026 A 
ATOM     44  C   LIG d   1       9.987  19.989   0.066  0.00  0.00     0.031 A 
ENDBRANCH  31  38
ENDBRANCH  25  26
ENDBRANCH  24  25
ENDBRANCH   1  24
TORSDOF 9
ENDMDL
MODEL 8
REMARK VINA RESULT:      -6.1      5.670      8.876
REMARK  9 active torsions:
REMARK  status: ('A' for Active; 'I' for Inactive)
REMARK    1  A    between atoms: N_3  and  C_17 
REMARK    2  A    between atoms: N_4  and  C_18 
REMARK       I    between atoms: N_5  and  C_19 
REMARK       I    between atoms: N_6  and  C_20 
REMARK       I    between atoms: N_7  and  C_19 
REMARK       I    between atoms: N_8  and  C_20 
REMARK       I    between atoms: N_9  and  C_21 
REMARK    3  A    between atoms: N_9  and  C_23 
REMARK       I    between atoms: N_10  and  C_22 
REMARK    4  A    between atoms: N_10  and  C_24 
REMARK       I    between atoms: N_11  and  C_21 
REMARK       I    between atoms: N_12  and  C_22 
REMARK    5  A    between atoms: C_13  and  C_14 
REMARK    6  A    between atoms: C_13  and  C_15 
REMARK    7  A    between atoms: C_14  and  C_16 
REMARK    8  A    between atoms: C_15  and  C_17 
REMARK    9  A    between atoms: C_16  and  C_18 
ROOT
ATOM      1  C   LIG d   1       7.327  13.473   3.180  0.00  0.00     0.002 C 
ENDROOT
BRANCH   1   2
ATOM      2  C   LIG d   1       8.262  14.103   2.147  0.00  0.00     0.002 C 
BRANCH   2   3
ATOM      3  C   LIG d   1       9.631  14.412   2.753  0.00  0.00     0.022 C 
BRANCH   3   4
ATOM      4  C   LIG d   1       9.602  15.713   3.553  0.00  0.00     0.152 C 
BRANCH   4   5
ATOM      5  N   LIG d   1       9.759  16.850   2.651  0.00  0.00    -0.261 NA
ATOM      6  C   LIG d   1       8.861  17.767   2.609  0.00  0.00     0.197 C 
ATOM      7  N   LIG d   1       9.053  18.822   1.769  0.00  0.00    -0.190 NA
ATOM      8  N   LIG d   1       7.729  17.848   3.355  0.00  0.00    -0.271 NA
ATOM      9  C   LIG d   1       9.561  18.667   0.590  0.00  0.00     0.180 C 
ATOM     10  N   LIG d   1       9.768  19.673  -0.319  0.00  0.00    -0.331 N 
ATOM     11  N   LIG d   1       9.950  17.483   0.026  0.00  0.00    -0.272 NA
ATOM     12  H   LIG d   1       9.651  19.374  -1.278  0.00  0.00     0.168 HD
ATOM     13  H   LIG d   1       9.995  16.769   0.760  0.00  0.00     0.127 HD
ATOM     14  H   LIG d   1      10.868  17.554  -0.397  0.00  0.00     0.127 HD
ATOM     15  H   LIG d   1       7.837  17.540   4.309  0.00  0.00     0.127 HD
ATOM     16  H   LIG d   1       7.349  18.786   3.300  0.00  0.00     0.127 HD
BRANCH  10  17
ATOM     17  C   LIG d   1       9.668  21.060  -0.115  0.00  0.00     0.034 A 
ATOM     18  C   LIG d   1       8.519  21.735  -0.556  0.00  0.00     0.031 A 
ATOM     19  C   LIG d   1       8.385  23.119  -0.393  0.00  0.00     0.026 A 
ATOM     20  C   LIG d   1       9.409  23.846   0.205  0.00  0.00     0.034 A 
ATOM     21 CL   LIG d   1       9.251  25.548   0.402  0.00  0.00    -0.084 Cl
ATOM     22  C   LIG d   1      10.563  23.202   0.637  0.00  0.00     0.026 A 
ATOM     23  C   LIG d   1      10.689  21.819   0.474  0.00  0.00     0.031 A 
ENDBRANCH  10  17
ENDBRANCH   4   5
ENDBRANCH   3   4
ENDBRANCH   2   3
ENDBRANCH   1   2
BRANCH   1  24
ATOM     24  C   LIG d   1       6.136  12.790   2.509  0.00  0.00     0.022 C 
BRANCH  24  25
ATOM     25  C   LIG d   1       5.543  11.704   3.405  0.00  0.00     0.152 C 
BRANCH  25  26
ATOM     26  N   LIG d   1       4.414  11.059   2.740  0.00  0.00    -0.261 NA
ATOM     27  C   LIG d   1       4.564   9.916   2.172  0.00  0.00     0.197 C 
ATOM     28  N   LIG d   1       3.493   9.331   1.558  0.00  0.00    -0.190 NA
ATOM     29  N   LIG d   1       5.693   9.160   2.153  0.00  0.00    -0.271 NA
ATOM     30  C   LIG d   1       2.527  10.028   1.040  0.00  0.00     0.180 C 
ATOM     31  N   LIG d   1       1.481   9.351   0.483  0.00  0.00    -0.331 N 
ATOM     32  N   LIG d   1       2.405  11.384   1.056  0.00  0.00    -0.272 NA
ATOM     33  H   LIG d   1       1.584   8.347   0.588  0.00  0.00     0.168 HD
ATOM     34  H   LIG d   1       3.067  11.783   1.727  0.00  0.00     0.127 HD
ATOM     35  H   LIG d   1       1.460  11.682   1.267  0.00  0.00     0.127 HD
ATOM     36  H   LIG d   1       6.258   9.226   2.986  0.00  0.00     0.127 HD
ATOM     37  H   LIG d   1       5.475   8.203   1.904  0.00  0.00     0.127 HD
BRANCH  31  38
ATOM     38  C   LIG d   1       0.619   9.699  -0.576  0.00  0.00     0.034 A 
ATOM     39  C   LIG d   1      -0.746   9.869  -0.287  0.00  0.00     0.031 A 
ATOM     40  C   LIG d   1      -1.654  10.266  -1.275  0.00  0.00     0.026 A 
ATOM     41  C   LIG d   1      -1.202  10.506  -2.568  0.00  0.00     0.034 A 
ATOM     42 CL   LIG d   1      -2.312  10.999  -3.785  0.00  0.00    -0.084 Cl
ATOM     43  C   LIG d   1       0.145  10.351  -2.877  0.00  0.00     0.026 A 
ATOM     44  C   LIG d   1       1.048   9.954  -1.884  0.00  0.00     0.031 A 
ENDBRANCH  31  38
ENDBRANCH  25  26
ENDBRANCH  24  25
ENDBRANCH   1  24
TORSDOF 9
ENDMDL
MODEL 9
REMARK VINA RESULT:      -6.1     17.921     21.536
REMARK  9 active torsions:
REMARK  status: ('A' for Active; 'I' for Inactive)
REMARK    1  A    between atoms: N_3  and  C_17 
REMARK    2  A    between atoms: N_4  and  C_18 
REMARK       I    between atoms: N_5  and  C_19 
REMARK       I    between atoms: N_6  and  C_20 
REMARK       I    between atoms: N_7  and  C_19 
REMARK       I    between atoms: N_8  and  C_20 
REMARK       I    between atoms: N_9  and  C_21 
REMARK    3  A    between atoms: N_9  and  C_23 
REMARK       I    between atoms: N_10  and  C_22 
REMARK    4  A    between atoms: N_10  and  C_24 
REMARK       I    between atoms: N_11  and  C_21 
REMARK       I    between atoms: N_12  and  C_22 
REMARK    5  A    between atoms: C_13  and  C_14 
REMARK    6  A    between atoms: C_13  and  C_15 
REMARK    7  A    between atoms: C_14  and  C_16 
REMARK    8  A    between atoms: C_15  and  C_17 
REMARK    9  A    between atoms: C_16  and  C_18 
ROOT
ATOM      1  C   LIG d   1       7.106  26.119  -9.984  0.00  0.00     0.002 C 
ENDROOT
BRANCH   1   2
ATOM      2  C   LIG d   1       6.868  27.584  -9.615  0.00  0.00     0.002 C 
BRANCH   2   3
ATOM      3  C   LIG d   1       5.376  27.884  -9.473  0.00  0.00     0.022 C 
BRANCH   3   4
ATOM      4  C   LIG d   1       4.966  29.078 -10.332  0.00  0.00     0.152 C 
BRANCH   4   5
ATOM      5  N   LIG d   1       6.148  29.860 -10.684  0.00  0.00    -0.261 NA
ATOM      6  C   LIG d   1       6.148  30.584 -11.745  0.00  0.00     0.197 C 
ATOM      7  N   LIG d   1       7.262  31.314 -12.029  0.00  0.00    -0.190 NA
ATOM      8  N   LIG d   1       5.128  30.759 -12.625  0.00  0.00    -0.271 NA
ATOM      9  C   LIG d   1       8.450  30.844 -11.832  0.00  0.00     0.180 C 
ATOM     10  N   LIG d   1       9.618  31.508 -12.110  0.00  0.00    -0.331 N 
ATOM     11  N   LIG d   1       8.759  29.602 -11.349  0.00  0.00    -0.272 NA
ATOM     12  H   LIG d   1      10.364  30.894 -12.407  0.00  0.00     0.168 HD
ATOM     13  H   LIG d   1       7.912  29.186 -10.948  0.00  0.00     0.127 HD
ATOM     14  H   LIG d   1       9.460  29.648 -10.618  0.00  0.00     0.127 HD
ATOM     15  H   LIG d   1       4.215  30.803 -12.199  0.00  0.00     0.127 HD
ATOM     16  H   LIG d   1       5.314  31.566 -13.209  0.00  0.00     0.127 HD
BRANCH  10  17
ATOM     17  C   LIG d   1       9.785  32.858 -12.464  0.00  0.00     0.034 A 
ATOM     18  C   LIG d   1      10.132  33.180 -13.786  0.00  0.00     0.031 A 
ATOM     19  C   LIG d   1      10.329  34.508 -14.179  0.00  0.00     0.026 A 
ATOM     20  C   LIG d   1      10.192  35.532 -13.248  0.00  0.00     0.034 A 
ATOM     21 CL   LIG d   1      10.439  37.166 -13.725  0.00  0.00    -0.084 Cl
ATOM     22  C   LIG d   1       9.863  35.237 -11.930  0.00  0.00     0.026 A 
ATOM     23  C   LIG d   1       9.664  33.908 -11.543  0.00  0.00     0.031 A 
ENDBRANCH  10  17
ENDBRANCH   4   5
ENDBRANCH   3   4
ENDBRANCH   2   3
ENDBRANCH   1   2
BRANCH   1  24
ATOM     24  C   LIG d   1       6.662  25.827 -11.417  0.00  0.00     0.022 C 
BRANCH  24  25
ATOM     25  C   LIG d   1       7.795  26.078 -12.411  0.00  0.00     0.152 C 
BRANCH  25  26
ATOM     26  N   LIG d   1       7.499  27.248 -13.232  0.00  0.00    -0.261 NA
ATOM     27  C   LIG d   1       6.807  27.126 -14.308  0.00  0.00     0.197 C 
ATOM     28  N   LIG d   1       6.540  28.235 -15.059  0.00  0.00    -0.190 NA
ATOM     29  N   LIG d   1       6.238  25.986 -14.783  0.00  0.00    -0.271 NA
ATOM     30  C   LIG d   1       7.338  29.259 -15.088  0.00  0.00     0.180 C 
ATOM     31  N   LIG d   1       6.964  30.337 -15.838  0.00  0.00    -0.331 N 
ATOM     32  N   LIG d   1       8.492  29.410 -14.381  0.00  0.00    -0.272 NA
ATOM     33  H   LIG d   1       6.053  30.202 -16.261  0.00  0.00     0.168 HD
ATOM     34  H   LIG d   1       8.543  28.698 -13.647  0.00  0.00     0.127 HD
ATOM     35  H   LIG d   1       8.581  30.338 -13.985  0.00  0.00     0.127 HD
ATOM     36  H   LIG d   1       5.914  25.350 -14.072  0.00  0.00     0.127 HD
ATOM     37  H   LIG d   1       5.522  26.205 -15.465  0.00  0.00     0.127 HD
BRANCH  31  38
ATOM     38  C   LIG d   1       7.739  31.300 -16.515  0.00  0.00     0.034 A 
ATOM     39  C   LIG d   1       8.706  30.845 -17.429  0.00  0.00     0.031 A 
ATOM     40  C   LIG d   1       9.476  31.741 -18.178  0.00  0.00     0.026 A 
ATOM     41  C   LIG d   1       9.282  33.109 -18.026  0.00  0.00     0.034 A 
ATOM     42 CL   LIG d   1      10.222  34.216 -18.947  0.00  0.00    -0.084 Cl
ATOM     43  C   LIG d   1       8.326  33.584 -17.134  0.00  0.00     0.026 A 
ATOM     44  C   LIG d   1       7.558  32.682 -16.388  0.00  0.00     0.031 A 
ENDBRANCH  31  38
ENDBRANCH  25  26
ENDBRANCH  24  25
ENDBRANCH   1  24
TORSDOF 9
ENDMDL
