MODEL 1
REMARK VINA RESULT:      -4.9      0.000      0.000
REMARK  1 active torsions:
REMARK  status: ('A' for Active; 'I' for Inactive)
REMARK    1  A    between atoms: C_3  and  C_7 
ROOT
ATOM      1  N   LIG d   1       5.403  26.800 -11.510  0.00  0.00    -0.067 N 
ATOM      2  C   LIG d   1       5.968  27.468 -10.265  0.00  0.00     0.222 C 
ATOM      3  C   LIG d   1       6.934  26.395  -9.753  0.00  0.00     0.040 C 
ATOM      4  C   LIG d   1       7.407  25.613 -10.975  0.00  0.00     0.030 C 
ATOM      5  C   LIG d   1       6.544  26.056 -12.145  0.00  0.00     0.235 C 
ATOM      6  C   LIG d   1       4.639  27.670 -12.457  0.00  0.00     0.270 C 
ATOM      7  H   LIG d   1       4.740  26.091 -11.173  0.00  0.00     0.280 HD
ENDROOT
BRANCH   2   8
ATOM      8  C   LIG d   1       6.558  28.839 -10.480  0.00  0.00    -0.010 A 
ATOM      9  C   LIG d   1       5.879  29.977 -10.015  0.00  0.00     0.012 A 
ATOM     10  C   LIG d   1       6.403  31.249 -10.236  0.00  0.00     0.020 A 
ATOM     11  C   LIG d   1       7.595  31.354 -10.927  0.00  0.00     0.116 A 
ATOM     12  N   LIG d   1       8.275  30.286 -11.395  0.00  0.00    -0.273 NA
ATOM     13  C   LIG d   1       7.755  29.065 -11.153  0.00  0.00     0.125 A 
ENDBRANCH   2   8
TORSDOF 1
ENDMDL
MODEL 2
REMARK VINA RESULT:      -4.8      2.025      4.043
REMARK  1 active torsions:
REMARK  status: ('A' for Active; 'I' for Inactive)
REMARK    1  A    between atoms: C_3  and  C_7 
ROOT
ATOM      1  N   LIG d   1       7.906  27.599 -11.651  0.00  0.00    -0.067 N 
ATOM      2  C   LIG d   1       7.205  26.458 -12.374  0.00  0.00     0.222 C 
ATOM      3  C   LIG d   1       6.954  25.475 -11.227  0.00  0.00     0.040 C 
ATOM      4  C   LIG d   1       6.820  26.310  -9.956  0.00  0.00     0.030 C 
ATOM      5  C   LIG d   1       7.232  27.729 -10.314  0.00  0.00     0.235 C 
ATOM      6  C   LIG d   1       8.042  28.889 -12.395  0.00  0.00     0.270 C 
ATOM      7  H   LIG d   1       8.863  27.271 -11.469  0.00  0.00     0.280 HD
ENDROOT
BRANCH   2   8
ATOM      8  C   LIG d   1       5.993  26.854 -13.181  0.00  0.00    -0.010 A 
ATOM      9  C   LIG d   1       4.737  26.952 -12.562  0.00  0.00     0.012 A 
ATOM     10  C   LIG d   1       3.609  27.288 -13.307  0.00  0.00     0.020 A 
ATOM     11  C   LIG d   1       3.763  27.511 -14.661  0.00  0.00     0.116 A 
ATOM     12  N   LIG d   1       4.950  27.422 -15.295  0.00  0.00    -0.273 NA
ATOM     13  C   LIG d   1       6.031  27.111 -14.549  0.00  0.00     0.125 A 
ENDBRANCH   2   8
TORSDOF 1
ENDMDL
MODEL 3
REMARK VINA RESULT:      -4.8      2.273      4.067
REMARK  1 active torsions:
REMARK  status: ('A' for Active; 'I' for Inactive)
REMARK    1  A    between atoms: C_3  and  C_7 
ROOT
ATOM      1  N   LIG d   1       6.438  28.719 -14.240  0.00  0.00    -0.067 N 
ATOM      2  C   LIG d   1       7.652  28.027 -13.638  0.00  0.00     0.222 C 
ATOM      3  C   LIG d   1       8.744  29.080 -13.854  0.00  0.00     0.040 C 
ATOM      4  C   LIG d   1       8.049  30.439 -13.843  0.00  0.00     0.030 C 
ATOM      5  C   LIG d   1       6.553  30.172 -13.872  0.00  0.00     0.235 C 
ATOM      6  C   LIG d   1       5.101  28.118 -13.943  0.00  0.00     0.270 C 
ATOM      7  H   LIG d   1       6.558  28.663 -15.259  0.00  0.00     0.280 HD
ENDROOT
BRANCH   2   8
ATOM      8  C   LIG d   1       7.479  27.536 -12.222  0.00  0.00    -0.010 A 
ATOM      9  C   LIG d   1       7.199  26.183 -11.976  0.00  0.00     0.012 A 
ATOM     10  C   LIG d   1       7.008  25.728 -10.673  0.00  0.00     0.020 A 
ATOM     11  C   LIG d   1       7.095  26.644  -9.643  0.00  0.00     0.116 A 
ATOM     12  N   LIG d   1       7.357  27.953  -9.836  0.00  0.00    -0.273 NA
ATOM     13  C   LIG d   1       7.554  28.366 -11.106  0.00  0.00     0.125 A 
ENDBRANCH   2   8
TORSDOF 1
ENDMDL
MODEL 4
REMARK VINA RESULT:      -4.5     40.589     42.583
REMARK  1 active torsions:
REMARK  status: ('A' for Active; 'I' for Inactive)
REMARK    1  A    between atoms: C_3  and  C_7 
ROOT
ATOM      1  N   LIG d   1       5.012   0.436  20.304  0.00  0.00    -0.067 N 
ATOM      2  C   LIG d   1       6.031  -0.672  20.085  0.00  0.00     0.222 C 
ATOM      3  C   LIG d   1       6.153  -0.680  18.558  0.00  0.00     0.040 C 
ATOM      4  C   LIG d   1       5.853   0.741  18.088  0.00  0.00     0.030 C 
ATOM      5  C   LIG d   1       5.323   1.503  19.291  0.00  0.00     0.235 C 
ATOM      6  C   LIG d   1       4.857   0.947  21.701  0.00  0.00     0.270 C 
ATOM      7  H   LIG d   1       4.102   0.037  20.042  0.00  0.00     0.280 HD
ENDROOT
BRANCH   2   8
ATOM      8  C   LIG d   1       7.322  -0.521  20.849  0.00  0.00    -0.010 A 
ATOM      9  C   LIG d   1       7.543  -1.275  22.013  0.00  0.00     0.012 A 
ATOM     10  C   LIG d   1       8.721  -1.119  22.741  0.00  0.00     0.020 A 
ATOM     11  C   LIG d   1       9.651  -0.203  22.290  0.00  0.00     0.116 A 
ATOM     12  N   LIG d   1       9.475   0.545  21.181  0.00  0.00    -0.273 NA
ATOM     13  C   LIG d   1       8.334   0.363  20.484  0.00  0.00     0.125 A 
ENDBRANCH   2   8
TORSDOF 1
ENDMDL
MODEL 5
REMARK VINA RESULT:      -4.5      2.626      3.645
REMARK  1 active torsions:
REMARK  status: ('A' for Active; 'I' for Inactive)
REMARK    1  A    between atoms: C_3  and  C_7 
ROOT
ATOM      1  N   LIG d   1       7.021  27.846 -10.837  0.00  0.00    -0.067 N 
ATOM      2  C   LIG d   1       7.965  27.293 -11.895  0.00  0.00     0.222 C 
ATOM      3  C   LIG d   1       7.767  25.784 -11.726  0.00  0.00     0.040 C 
ATOM      4  C   LIG d   1       6.343  25.585 -11.211  0.00  0.00     0.030 C 
ATOM      5  C   LIG d   1       5.807  26.960 -10.850  0.00  0.00     0.235 C 
ATOM      6  C   LIG d   1       6.712  29.308 -10.904  0.00  0.00     0.270 C 
ATOM      7  H   LIG d   1       7.489  27.692  -9.935  0.00  0.00     0.280 HD
ENDROOT
BRANCH   2   8
ATOM      8  C   LIG d   1       7.760  27.834 -13.288  0.00  0.00    -0.010 A 
ATOM      9  C   LIG d   1       8.510  28.934 -13.734  0.00  0.00     0.012 A 
ATOM     10  C   LIG d   1       8.304  29.457 -15.009  0.00  0.00     0.020 A 
ATOM     11  C   LIG d   1       7.343  28.869 -15.809  0.00  0.00     0.116 A 
ATOM     12  N   LIG d   1       6.598  27.815 -15.417  0.00  0.00    -0.273 NA
ATOM     13  C   LIG d   1       6.828  27.316 -14.184  0.00  0.00     0.125 A 
ENDBRANCH   2   8
TORSDOF 1
ENDMDL
MODEL 6
REMARK VINA RESULT:      -4.4     32.017     33.355
REMARK  1 active torsions:
REMARK  status: ('A' for Active; 'I' for Inactive)
REMARK    1  A    between atoms: C_3  and  C_7 
ROOT
ATOM      1  N   LIG d   1      15.109  -3.057  -6.916  0.00  0.00    -0.067 N 
ATOM      2  C   LIG d   1      14.311  -3.066  -5.620  0.00  0.00     0.222 C 
ATOM      3  C   LIG d   1      13.671  -4.457  -5.663  0.00  0.00     0.040 C 
ATOM      4  C   LIG d   1      14.620  -5.351  -6.457  0.00  0.00     0.030 C 
ATOM      5  C   LIG d   1      15.668  -4.443  -7.077  0.00  0.00     0.235 C 
ATOM      6  C   LIG d   1      16.119  -1.967  -7.081  0.00  0.00     0.270 C 
ATOM      7  H   LIG d   1      14.421  -2.927  -7.669  0.00  0.00     0.280 HD
ENDROOT
BRANCH   2   8
ATOM      8  C   LIG d   1      15.098  -2.740  -4.376  0.00  0.00    -0.010 A 
ATOM      9  C   LIG d   1      15.938  -3.707  -3.801  0.00  0.00     0.012 A 
ATOM     10  C   LIG d   1      16.646  -3.423  -2.635  0.00  0.00     0.020 A 
ATOM     11  C   LIG d   1      16.490  -2.174  -2.064  0.00  0.00     0.116 A 
ATOM     12  N   LIG d   1      15.689  -1.219  -2.581  0.00  0.00    -0.273 NA
ATOM     13  C   LIG d   1      15.028  -1.514  -3.720  0.00  0.00     0.125 A 
ENDBRANCH   2   8
TORSDOF 1
ENDMDL
MODEL 7
REMARK VINA RESULT:      -4.4     19.689     21.897
REMARK  1 active torsions:
REMARK  status: ('A' for Active; 'I' for Inactive)
REMARK    1  A    between atoms: C_3  and  C_7 
ROOT
ATOM      1  N   LIG d   1       0.134  10.784  -4.184  0.00  0.00    -0.067 N 
ATOM      2  C   LIG d   1       0.133   9.269  -4.046  0.00  0.00     0.222 C 
ATOM      3  C   LIG d   1       1.174   8.865  -5.094  0.00  0.00     0.040 C 
ATOM      4  C   LIG d   1       2.158  10.027  -5.204  0.00  0.00     0.030 C 
ATOM      5  C   LIG d   1       1.563  11.186  -4.422  0.00  0.00     0.235 C 
ATOM      6  C   LIG d   1      -0.548  11.563  -3.103  0.00  0.00     0.270 C 
ATOM      7  H   LIG d   1      -0.379  10.989  -5.051  0.00  0.00     0.280 HD
ENDROOT
BRANCH   2   8
ATOM      8  C   LIG d   1       0.364   8.748  -2.650  0.00  0.00    -0.010 A 
ATOM      9  C   LIG d   1      -0.632   7.996  -2.006  0.00  0.00     0.012 A 
ATOM     10  C   LIG d   1      -0.437   7.537  -0.705  0.00  0.00     0.020 A 
ATOM     11  C   LIG d   1       0.751   7.849  -0.073  0.00  0.00     0.116 A 
ATOM     12  N   LIG d   1       1.730   8.573  -0.654  0.00  0.00    -0.273 NA
ATOM     13  C   LIG d   1       1.524   8.992  -1.921  0.00  0.00     0.125 A 
ENDBRANCH   2   8
TORSDOF 1
ENDMDL
MODEL 8
REMARK VINA RESULT:      -4.3     30.571     33.102
REMARK  1 active torsions:
REMARK  status: ('A' for Active; 'I' for Inactive)
REMARK    1  A    between atoms: C_3  and  C_7 
ROOT
ATOM      1  N   LIG d   1      14.617  -5.580 -10.550  0.00  0.00    -0.067 N 
ATOM      2  C   LIG d   1      13.178  -5.087 -10.509  0.00  0.00     0.222 C 
ATOM      3  C   LIG d   1      12.900  -5.076  -9.003  0.00  0.00     0.040 C 
ATOM      4  C   LIG d   1      14.240  -4.829  -8.313  0.00  0.00     0.030 C 
ATOM      5  C   LIG d   1      15.315  -4.944  -9.380  0.00  0.00     0.235 C 
ATOM      6  C   LIG d   1      15.345  -5.434 -11.849  0.00  0.00     0.270 C 
ATOM      7  H   LIG d   1      14.576  -6.588 -10.356  0.00  0.00     0.280 HD
ENDROOT
BRANCH   2   8
ATOM      8  C   LIG d   1      12.918  -3.793 -11.239  0.00  0.00    -0.010 A 
ATOM      9  C   LIG d   1      12.063  -3.773 -12.352  0.00  0.00     0.012 A 
ATOM     10  C   LIG d   1      11.842  -2.587 -13.049  0.00  0.00     0.020 A 
ATOM     11  C   LIG d   1      12.489  -1.446 -12.618  0.00  0.00     0.116 A 
ATOM     12  N   LIG d   1      13.322  -1.424 -11.557  0.00  0.00    -0.273 NA
ATOM     13  C   LIG d   1      13.507  -2.581 -10.888  0.00  0.00     0.125 A 
ENDBRANCH   2   8
TORSDOF 1
ENDMDL
MODEL 9
REMARK VINA RESULT:      -4.3      2.018      4.063
REMARK  1 active torsions:
REMARK  status: ('A' for Active; 'I' for Inactive)
REMARK    1  A    between atoms: C_3  and  C_7 
ROOT
ATOM      1  N   LIG d   1       5.248  29.339 -13.474  0.00  0.00    -0.067 N 
ATOM      2  C   LIG d   1       4.612  28.434 -12.429  0.00  0.00     0.222 C 
ATOM      3  C   LIG d   1       3.590  27.665 -13.270  0.00  0.00     0.040 C 
ATOM      4  C   LIG d   1       4.151  27.597 -14.688  0.00  0.00     0.030 C 
ATOM      5  C   LIG d   1       5.356  28.523 -14.731  0.00  0.00     0.235 C 
ATOM      6  C   LIG d   1       6.514  30.036 -13.087  0.00  0.00     0.270 C 
ATOM      7  H   LIG d   1       4.559  30.079 -13.662  0.00  0.00     0.280 HD
ENDROOT
BRANCH   2   8
ATOM      8  C   LIG d   1       5.578  27.594 -11.631  0.00  0.00    -0.010 A 
ATOM      9  C   LIG d   1       5.952  26.323 -12.094  0.00  0.00     0.012 A 
ATOM     10  C   LIG d   1       6.821  25.529 -11.347  0.00  0.00     0.020 A 
ATOM     11  C   LIG d   1       7.289  26.025 -10.146  0.00  0.00     0.116 A 
ATOM     12  N   LIG d   1       6.950  27.238  -9.663  0.00  0.00    -0.273 NA
ATOM     13  C   LIG d   1       6.121  27.994 -10.413  0.00  0.00     0.125 A 
ENDBRANCH   2   8
TORSDOF 1
ENDMDL
