MODEL 1
REMARK VINA RESULT:      -6.8      0.000      0.000
REMARK  11 active torsions:
REMARK  status: ('A' for Active; 'I' for Inactive)
REMARK    1  A    between atoms: O_1  and  C_16 
REMARK    2  A    between atoms: O_1  and  C_23 
REMARK    3  A    between atoms: O_2  and  C_20 
REMARK    4  A    between atoms: N_8  and  C_22 
REMARK    5  A    between atoms: N_8  and  C_26 
REMARK    6  A    between atoms: N_9  and  C_24 
REMARK    7  A    between atoms: C_10  and  C_13 
REMARK    8  A    between atoms: C_11  and  C_16 
REMARK    9  A    between atoms: C_12  and  C_20 
REMARK   10  A    between atoms: C_22  and  C_23 
REMARK   11  A    between atoms: C_26  and  C_28 
ROOT
ATOM      1  N   LIG d   1      17.844  -2.638  -2.304  0.00  0.00    -0.362 N 
ATOM      2  C   LIG d   1      17.988  -3.277  -5.052  0.00  0.00     0.101 C 
ATOM      3  C   LIG d   1      18.847  -2.191  -4.399  0.00  0.00     0.052 C 
ATOM      4  C   LIG d   1      17.191  -4.096  -4.050  0.00  0.00     0.052 C 
ATOM      5  C   LIG d   1      18.748  -1.923  -3.076  0.00  0.00     0.018 C 
ATOM      6  C   LIG d   1      17.129  -3.741  -2.748  0.00  0.00     0.018 C 
ATOM      7  C   LIG d   1      19.590  -0.919  -2.334  0.00  0.00     0.069 C 
ATOM      8  C   LIG d   1      16.350  -4.502  -1.703  0.00  0.00     0.069 C 
ATOM      9  H   LIG d   1      17.840  -2.462  -1.300  0.00  0.00     0.165 HD
ENDROOT
BRANCH   3  10
ATOM     10  C   LIG d   1      19.748  -1.496  -5.344  0.00  0.00     0.292 C 
ATOM     11  O   LIG d   1      20.711  -2.022  -5.884  0.00  0.00    -0.259 OA
BRANCH  10  12
ATOM     12  O   LIG d   1      19.248  -0.283  -5.706  0.00  0.00    -0.316 OA
BRANCH  12  13
ATOM     13  C   LIG d   1      20.114   0.823  -5.403  0.00  0.00     0.206 C 
BRANCH  13  14
ATOM     14  C   LIG d   1      20.648   1.434  -6.706  0.00  0.00     0.261 C 
BRANCH  14  15
ATOM     15  N   LIG d   1      21.066   2.883  -6.563  0.00  0.00    -0.069 N 
ATOM     16  C   LIG d   1      22.455   3.134  -7.101  0.00  0.00     0.270 C 
ATOM     17  H   LIG d   1      21.074   3.132  -5.567  0.00  0.00     0.279 HD
BRANCH  15  18
ATOM     18  C   LIG d   1      20.035   3.787  -7.221  0.00  0.00     0.273 C 
BRANCH  18  19
ATOM     19  C   LIG d   1      19.197   4.581  -6.257  0.00  0.00    -0.033 A 
ATOM     20  C   LIG d   1      18.265   5.512  -6.742  0.00  0.00     0.009 A 
ATOM     21  C   LIG d   1      17.470   6.244  -5.859  0.00  0.00     0.001 A 
ATOM     22  C   LIG d   1      17.600   6.056  -4.485  0.00  0.00     0.000 A 
ATOM     23  C   LIG d   1      18.518   5.132  -3.992  0.00  0.00     0.001 A 
ATOM     24  C   LIG d   1      19.311   4.393  -4.871  0.00  0.00     0.009 A 
ENDBRANCH  18  19
ENDBRANCH  15  18
ENDBRANCH  14  15
ENDBRANCH  13  14
ENDBRANCH  12  13
ENDBRANCH  10  12
ENDBRANCH   3  10
BRANCH   2  25
ATOM     25  C   LIG d   1      17.054  -2.669  -6.113  0.00  0.00    -0.042 A 
ATOM     26  C   LIG d   1      16.070  -1.743  -5.733  0.00  0.00     0.044 A 
ATOM     27  C   LIG d   1      15.239  -1.175  -6.708  0.00  0.00     0.103 A 
ATOM     28  C   LIG d   1      15.367  -1.518  -8.059  0.00  0.00     0.036 A 
ATOM     29  C   LIG d   1      16.348  -2.431  -8.439  0.00  0.00     0.003 A 
ATOM     30  C   LIG d   1      17.187  -2.999  -7.476  0.00  0.00     0.008 A 
BRANCH  27  31
ATOM     31  N   LIG d   1      14.196  -0.232  -6.304  0.00  0.00    -0.116 N 
ATOM     32  O   LIG d   1      14.469   0.975  -6.335  0.00  0.00    -0.532 OA
ATOM     33  O   LIG d   1      13.125  -0.713  -5.904  0.00  0.00    -0.532 OA
ENDBRANCH  27  31
ENDBRANCH   2  25
BRANCH   4  34
ATOM     34  C   LIG d   1      16.472  -5.283  -4.566  0.00  0.00     0.291 C 
ATOM     35  O   LIG d   1      15.331  -5.270  -4.999  0.00  0.00    -0.260 OA
BRANCH  34  36
ATOM     36  O   LIG d   1      17.281  -6.369  -4.473  0.00  0.00    -0.323 OA
ATOM     37  C   LIG d   1      17.572  -6.989  -5.727  0.00  0.00     0.213 C 
ENDBRANCH  34  36
ENDBRANCH   4  34
TORSDOF 11
ENDMDL
MODEL 2
REMARK VINA RESULT:      -6.6      7.720     12.514
REMARK  11 active torsions:
REMARK  status: ('A' for Active; 'I' for Inactive)
REMARK    1  A    between atoms: O_1  and  C_16 
REMARK    2  A    between atoms: O_1  and  C_23 
REMARK    3  A    between atoms: O_2  and  C_20 
REMARK    4  A    between atoms: N_8  and  C_22 
REMARK    5  A    between atoms: N_8  and  C_26 
REMARK    6  A    between atoms: N_9  and  C_24 
REMARK    7  A    between atoms: C_10  and  C_13 
REMARK    8  A    between atoms: C_11  and  C_16 
REMARK    9  A    between atoms: C_12  and  C_20 
REMARK   10  A    between atoms: C_22  and  C_23 
REMARK   11  A    between atoms: C_26  and  C_28 
ROOT
ATOM      1  N   LIG d   1      21.535   9.994   1.255  0.00  0.00    -0.362 N 
ATOM      2  C   LIG d   1      22.558  10.064  -1.378  0.00  0.00     0.101 C 
ATOM      3  C   LIG d   1      21.060  10.030  -1.063  0.00  0.00     0.052 C 
ATOM      4  C   LIG d   1      23.428  10.243  -0.144  0.00  0.00     0.052 C 
ATOM      5  C   LIG d   1      20.616  10.003   0.215  0.00  0.00     0.018 C 
ATOM      6  C   LIG d   1      22.901  10.177   1.098  0.00  0.00     0.018 C 
ATOM      7  C   LIG d   1      19.166  10.029   0.625  0.00  0.00     0.069 C 
ATOM      8  C   LIG d   1      23.706  10.336   2.365  0.00  0.00     0.069 C 
ATOM      9  H   LIG d   1      21.170  10.043   2.205  0.00  0.00     0.165 HD
ENDROOT
BRANCH   3  10
ATOM     10  C   LIG d   1      20.199  10.021  -2.265  0.00  0.00     0.292 C 
ATOM     11  O   LIG d   1      20.219  10.887  -3.129  0.00  0.00    -0.259 OA
BRANCH  10  12
ATOM     12  O   LIG d   1      19.552   8.832  -2.403  0.00  0.00    -0.316 OA
BRANCH  12  13
ATOM     13  C   LIG d   1      19.695   8.233  -3.702  0.00  0.00     0.206 C 
BRANCH  13  14
ATOM     14  C   LIG d   1      19.821   6.710  -3.558  0.00  0.00     0.261 C 
BRANCH  14  15
ATOM     15  N   LIG d   1      18.510   5.978  -3.757  0.00  0.00    -0.069 N 
ATOM     16  C   LIG d   1      17.772   6.449  -4.988  0.00  0.00     0.270 C 
ATOM     17  H   LIG d   1      17.902   6.155  -2.949  0.00  0.00     0.279 HD
BRANCH  15  18
ATOM     18  C   LIG d   1      18.754   4.477  -3.785  0.00  0.00     0.273 C 
BRANCH  18  19
ATOM     19  C   LIG d   1      20.106   4.075  -4.307  0.00  0.00    -0.033 A 
ATOM     20  C   LIG d   1      21.040   3.479  -3.446  0.00  0.00     0.009 A 
ATOM     21  C   LIG d   1      22.291   3.087  -3.921  0.00  0.00     0.001 A 
ATOM     22  C   LIG d   1      22.624   3.287  -5.258  0.00  0.00     0.000 A 
ATOM     23  C   LIG d   1      21.703   3.874  -6.125  0.00  0.00     0.001 A 
ATOM     24  C   LIG d   1      20.447   4.263  -5.655  0.00  0.00     0.009 A 
ENDBRANCH  18  19
ENDBRANCH  15  18
ENDBRANCH  14  15
ENDBRANCH  13  14
ENDBRANCH  12  13
ENDBRANCH  10  12
ENDBRANCH   3  10
BRANCH   2  25
ATOM     25  C   LIG d   1      22.981   8.806  -2.156  0.00  0.00    -0.042 A 
ATOM     26  C   LIG d   1      23.579   8.931  -3.420  0.00  0.00     0.044 A 
ATOM     27  C   LIG d   1      23.985   7.782  -4.112  0.00  0.00     0.103 A 
ATOM     28  C   LIG d   1      23.798   6.505  -3.569  0.00  0.00     0.036 A 
ATOM     29  C   LIG d   1      23.211   6.379  -2.312  0.00  0.00     0.003 A 
ATOM     30  C   LIG d   1      22.810   7.519  -1.609  0.00  0.00     0.008 A 
BRANCH  27  31
ATOM     31  N   LIG d   1      24.581   7.915  -5.440  0.00  0.00    -0.116 N 
ATOM     32  O   LIG d   1      24.974   6.883  -6.000  0.00  0.00    -0.532 OA
ATOM     33  O   LIG d   1      24.704   9.064  -5.892  0.00  0.00    -0.532 OA
ENDBRANCH  27  31
ENDBRANCH   2  25
BRANCH   4  34
ATOM     34  C   LIG d   1      24.875  10.468  -0.363  0.00  0.00     0.291 C 
ATOM     35  O   LIG d   1      25.727   9.596  -0.324  0.00  0.00    -0.260 OA
BRANCH  34  36
ATOM     36  O   LIG d   1      25.088  11.786  -0.606  0.00  0.00    -0.323 OA
ATOM     37  C   LIG d   1      26.226  12.327   0.067  0.00  0.00     0.213 C 
ENDBRANCH  34  36
ENDBRANCH   4  34
TORSDOF 11
ENDMDL
MODEL 3
REMARK VINA RESULT:      -6.4     25.582     28.509
REMARK  11 active torsions:
REMARK  status: ('A' for Active; 'I' for Inactive)
REMARK    1  A    between atoms: O_1  and  C_16 
REMARK    2  A    between atoms: O_1  and  C_23 
REMARK    3  A    between atoms: O_2  and  C_20 
REMARK    4  A    between atoms: N_8  and  C_22 
REMARK    5  A    between atoms: N_8  and  C_26 
REMARK    6  A    between atoms: N_9  and  C_24 
REMARK    7  A    between atoms: C_10  and  C_13 
REMARK    8  A    between atoms: C_11  and  C_16 
REMARK    9  A    between atoms: C_12  and  C_20 
REMARK   10  A    between atoms: C_22  and  C_23 
REMARK   11  A    between atoms: C_26  and  C_28 
ROOT
ATOM      1  N   LIG d   1      27.804  -3.371  23.257  0.00  0.00    -0.362 N 
ATOM      2  C   LIG d   1      24.979  -3.393  23.285  0.00  0.00     0.101 C 
ATOM      3  C   LIG d   1      25.799  -2.611  22.256  0.00  0.00     0.052 C 
ATOM      4  C   LIG d   1      25.825  -4.297  24.168  0.00  0.00     0.052 C 
ATOM      5  C   LIG d   1      27.152  -2.635  22.278  0.00  0.00     0.018 C 
ATOM      6  C   LIG d   1      27.175  -4.236  24.141  0.00  0.00     0.018 C 
ATOM      7  C   LIG d   1      28.043  -1.949  21.275  0.00  0.00     0.069 C 
ATOM      8  C   LIG d   1      28.074  -5.095  24.995  0.00  0.00     0.069 C 
ATOM      9  H   LIG d   1      28.821  -3.425  23.207  0.00  0.00     0.165 HD
ENDROOT
BRANCH   3  10
ATOM     10  C   LIG d   1      24.976  -1.855  21.288  0.00  0.00     0.292 C 
ATOM     11  O   LIG d   1      24.941  -0.634  21.226  0.00  0.00    -0.259 OA
BRANCH  10  12
ATOM     12  O   LIG d   1      24.445  -2.675  20.341  0.00  0.00    -0.316 OA
BRANCH  12  13
ATOM     13  C   LIG d   1      24.810  -2.331  18.995  0.00  0.00     0.206 C 
BRANCH  13  14
ATOM     14  C   LIG d   1      25.313  -3.581  18.259  0.00  0.00     0.261 C 
BRANCH  14  15
ATOM     15  N   LIG d   1      25.877  -3.283  16.885  0.00  0.00    -0.069 N 
ATOM     16  C   LIG d   1      26.834  -4.353  16.415  0.00  0.00     0.270 C 
ATOM     17  H   LIG d   1      26.399  -2.400  16.922  0.00  0.00     0.279 HD
BRANCH  15  18
ATOM     18  C   LIG d   1      24.743  -3.067  15.895  0.00  0.00     0.273 C 
BRANCH  18  19
ATOM     19  C   LIG d   1      24.826  -1.779  15.124  0.00  0.00    -0.033 A 
ATOM     20  C   LIG d   1      24.362  -0.585  15.700  0.00  0.00     0.009 A 
ATOM     21  C   LIG d   1      24.449   0.618  15.000  0.00  0.00     0.001 A 
ATOM     22  C   LIG d   1      24.995   0.644  13.720  0.00  0.00     0.000 A 
ATOM     23  C   LIG d   1      25.463  -0.533  13.138  0.00  0.00     0.001 A 
ATOM     24  C   LIG d   1      25.385  -1.740  13.836  0.00  0.00     0.009 A 
ENDBRANCH  18  19
ENDBRANCH  15  18
ENDBRANCH  14  15
ENDBRANCH  13  14
ENDBRANCH  12  13
ENDBRANCH  10  12
ENDBRANCH   3  10
BRANCH   2  25
ATOM     25  C   LIG d   1      24.133  -2.440  24.147  0.00  0.00    -0.042 A 
ATOM     26  C   LIG d   1      24.759  -1.587  25.070  0.00  0.00     0.044 A 
ATOM     27  C   LIG d   1      23.985  -0.703  25.834  0.00  0.00     0.103 A 
ATOM     28  C   LIG d   1      22.592  -0.657  25.699  0.00  0.00     0.036 A 
ATOM     29  C   LIG d   1      21.970  -1.498  24.778  0.00  0.00     0.003 A 
ATOM     30  C   LIG d   1      22.733  -2.378  24.006  0.00  0.00     0.008 A 
BRANCH  27  31
ATOM     31  N   LIG d   1      24.638   0.162  26.815  0.00  0.00    -0.116 N 
ATOM     32  O   LIG d   1      25.249  -0.381  27.744  0.00  0.00    -0.532 OA
ATOM     33  O   LIG d   1      24.488   1.386  26.677  0.00  0.00    -0.532 OA
ENDBRANCH  27  31
ENDBRANCH   2  25
BRANCH   4  34
ATOM     34  C   LIG d   1      25.108  -5.226  25.070  0.00  0.00     0.291 C 
ATOM     35  O   LIG d   1      25.065  -5.120  26.285  0.00  0.00    -0.260 OA
BRANCH  34  36
ATOM     36  O   LIG d   1      24.520  -6.199  24.330  0.00  0.00    -0.323 OA
ATOM     37  C   LIG d   1      25.363  -7.321  24.065  0.00  0.00     0.213 C 
ENDBRANCH  34  36
ENDBRANCH   4  34
TORSDOF 11
ENDMDL
MODEL 4
REMARK VINA RESULT:      -6.4     28.553     31.750
REMARK  11 active torsions:
REMARK  status: ('A' for Active; 'I' for Inactive)
REMARK    1  A    between atoms: O_1  and  C_16 
REMARK    2  A    between atoms: O_1  and  C_23 
REMARK    3  A    between atoms: O_2  and  C_20 
REMARK    4  A    between atoms: N_8  and  C_22 
REMARK    5  A    between atoms: N_8  and  C_26 
REMARK    6  A    between atoms: N_9  and  C_24 
REMARK    7  A    between atoms: C_10  and  C_13 
REMARK    8  A    between atoms: C_11  and  C_16 
REMARK    9  A    between atoms: C_12  and  C_20 
REMARK   10  A    between atoms: C_22  and  C_23 
REMARK   11  A    between atoms: C_26  and  C_28 
ROOT
ATOM      1  N   LIG d   1       5.649  -1.809  27.424  0.00  0.00    -0.362 N 
ATOM      2  C   LIG d   1       7.978  -3.291  26.821  0.00  0.00     0.101 C 
ATOM      3  C   LIG d   1       7.893  -1.769  26.674  0.00  0.00     0.052 C 
ATOM      4  C   LIG d   1       6.757  -3.899  27.494  0.00  0.00     0.052 C 
ATOM      5  C   LIG d   1       6.756  -1.100  26.980  0.00  0.00     0.018 C 
ATOM      6  C   LIG d   1       5.654  -3.159  27.742  0.00  0.00     0.018 C 
ATOM      7  C   LIG d   1       6.595   0.397  26.926  0.00  0.00     0.069 C 
ATOM      8  C   LIG d   1       4.407  -3.700  28.396  0.00  0.00     0.069 C 
ATOM      9  H   LIG d   1       4.831  -1.272  27.712  0.00  0.00     0.165 HD
ENDROOT
BRANCH   3  10
ATOM     10  C   LIG d   1       9.137  -1.149  26.171  0.00  0.00     0.292 C 
ATOM     11  O   LIG d   1      10.168  -1.058  26.823  0.00  0.00    -0.259 OA
BRANCH  10  12
ATOM     12  O   LIG d   1       9.063  -0.897  24.836  0.00  0.00    -0.316 OA
BRANCH  12  13
ATOM     13  C   LIG d   1      10.175  -1.406  24.081  0.00  0.00     0.206 C 
BRANCH  13  14
ATOM     14  C   LIG d   1      11.100  -0.249  23.681  0.00  0.00     0.261 C 
BRANCH  14  15
ATOM     15  N   LIG d   1      10.354   0.983  23.211  0.00  0.00    -0.069 N 
ATOM     16  C   LIG d   1      10.679   2.201  24.042  0.00  0.00     0.270 C 
ATOM     17  H   LIG d   1       9.345   0.815  23.296  0.00  0.00     0.279 HD
BRANCH  15  18
ATOM     18  C   LIG d   1      10.625   1.220  21.734  0.00  0.00     0.273 C 
BRANCH  18  19
ATOM     19  C   LIG d   1       9.421   1.063  20.846  0.00  0.00    -0.033 A 
ATOM     20  C   LIG d   1       8.249   1.786  21.119  0.00  0.00     0.009 A 
ATOM     21  C   LIG d   1       7.132   1.661  20.294  0.00  0.00     0.001 A 
ATOM     22  C   LIG d   1       7.170   0.811  19.191  0.00  0.00     0.000 A 
ATOM     23  C   LIG d   1       8.329   0.091  18.906  0.00  0.00     0.001 A 
ATOM     24  C   LIG d   1       9.452   0.218  19.726  0.00  0.00     0.009 A 
ENDBRANCH  18  19
ENDBRANCH  15  18
ENDBRANCH  14  15
ENDBRANCH  13  14
ENDBRANCH  12  13
ENDBRANCH  10  12
ENDBRANCH   3  10
BRANCH   2  25
ATOM     25  C   LIG d   1       8.228  -3.957  25.458  0.00  0.00    -0.042 A 
ATOM     26  C   LIG d   1       7.238  -3.914  24.463  0.00  0.00     0.044 A 
ATOM     27  C   LIG d   1       7.482  -4.501  23.215  0.00  0.00     0.103 A 
ATOM     28  C   LIG d   1       8.697  -5.140  22.939  0.00  0.00     0.036 A 
ATOM     29  C   LIG d   1       9.683  -5.179  23.923  0.00  0.00     0.003 A 
ATOM     30  C   LIG d   1       9.453  -4.589  25.169  0.00  0.00     0.008 A 
BRANCH  27  31
ATOM     31  N   LIG d   1       6.437  -4.478  22.192  0.00  0.00    -0.116 N 
ATOM     32  O   LIG d   1       5.303  -4.120  22.537  0.00  0.00    -0.532 OA
ATOM     33  O   LIG d   1       6.747  -4.874  21.059  0.00  0.00    -0.532 OA
ENDBRANCH  27  31
ENDBRANCH   2  25
BRANCH   4  34
ATOM     34  C   LIG d   1       6.823  -5.336  27.844  0.00  0.00     0.291 C 
ATOM     35  O   LIG d   1       6.236  -6.224  27.247  0.00  0.00    -0.260 OA
BRANCH  34  36
ATOM     36  O   LIG d   1       7.631  -5.494  28.923  0.00  0.00    -0.323 OA
ATOM     37  C   LIG d   1       6.930  -5.699  30.151  0.00  0.00     0.213 C 
ENDBRANCH  34  36
ENDBRANCH   4  34
TORSDOF 11
ENDMDL
MODEL 5
REMARK VINA RESULT:      -6.4     19.923     23.373
REMARK  11 active torsions:
REMARK  status: ('A' for Active; 'I' for Inactive)
REMARK    1  A    between atoms: O_1  and  C_16 
REMARK    2  A    between atoms: O_1  and  C_23 
REMARK    3  A    between atoms: O_2  and  C_20 
REMARK    4  A    between atoms: N_8  and  C_22 
REMARK    5  A    between atoms: N_8  and  C_26 
REMARK    6  A    between atoms: N_9  and  C_24 
REMARK    7  A    between atoms: C_10  and  C_13 
REMARK    8  A    between atoms: C_11  and  C_16 
REMARK    9  A    between atoms: C_12  and  C_20 
REMARK   10  A    between atoms: C_22  and  C_23 
REMARK   11  A    between atoms: C_26  and  C_28 
ROOT
ATOM      1  N   LIG d   1      10.189  20.903   3.058  0.00  0.00    -0.362 N 
ATOM      2  C   LIG d   1       8.243  18.931   2.501  0.00  0.00     0.101 C 
ATOM      3  C   LIG d   1       8.368  19.624   3.861  0.00  0.00     0.052 C 
ATOM      4  C   LIG d   1       9.142  19.537   1.434  0.00  0.00     0.052 C 
ATOM      5  C   LIG d   1       9.312  20.568   4.081  0.00  0.00     0.018 C 
ATOM      6  C   LIG d   1      10.077  20.459   1.748  0.00  0.00     0.018 C 
ATOM      7  C   LIG d   1       9.474  21.345   5.361  0.00  0.00     0.069 C 
ATOM      8  C   LIG d   1      11.007  21.093   0.743  0.00  0.00     0.069 C 
ATOM      9  H   LIG d   1      10.845  21.664   3.231  0.00  0.00     0.165 HD
ENDROOT
BRANCH   3  10
ATOM     10  C   LIG d   1       7.385  19.153   4.861  0.00  0.00     0.292 C 
ATOM     11  O   LIG d   1       6.174  19.192   4.701  0.00  0.00    -0.259 OA
BRANCH  10  12
ATOM     12  O   LIG d   1       7.992  18.474   5.872  0.00  0.00    -0.316 OA
BRANCH  12  13
ATOM     13  C   LIG d   1       7.418  17.184   6.140  0.00  0.00     0.206 C 
BRANCH  13  14
ATOM     14  C   LIG d   1       8.473  16.271   6.779  0.00  0.00     0.261 C 
BRANCH  14  15
ATOM     15  N   LIG d   1       9.370  16.989   7.767  0.00  0.00    -0.069 N 
ATOM     16  C   LIG d   1       8.921  16.791   9.196  0.00  0.00     0.270 C 
ATOM     17  H   LIG d   1       9.340  17.996   7.574  0.00  0.00     0.279 HD
BRANCH  15  18
ATOM     18  C   LIG d   1      10.813  16.557   7.564  0.00  0.00     0.273 C 
BRANCH  18  19
ATOM     19  C   LIG d   1      11.739  17.660   7.129  0.00  0.00    -0.033 A 
ATOM     20  C   LIG d   1      12.706  18.155   8.018  0.00  0.00     0.009 A 
ATOM     21  C   LIG d   1      13.580  19.166   7.621  0.00  0.00     0.001 A 
ATOM     22  C   LIG d   1      13.497  19.696   6.336  0.00  0.00     0.000 A 
ATOM     23  C   LIG d   1      12.545  19.210   5.442  0.00  0.00     0.001 A 
ATOM     24  C   LIG d   1      11.671  18.194   5.833  0.00  0.00     0.009 A 
ENDBRANCH  18  19
ENDBRANCH  15  18
ENDBRANCH  14  15
ENDBRANCH  13  14
ENDBRANCH  12  13
ENDBRANCH  10  12
ENDBRANCH   3  10
BRANCH   2  25
ATOM     25  C   LIG d   1       8.506  17.421   2.632  0.00  0.00    -0.042 A 
ATOM     26  C   LIG d   1       9.709  16.965   3.194  0.00  0.00     0.044 A 
ATOM     27  C   LIG d   1       9.932  15.588   3.333  0.00  0.00     0.103 A 
ATOM     28  C   LIG d   1       8.977  14.654   2.915  0.00  0.00     0.036 A 
ATOM     29  C   LIG d   1       7.780  15.105   2.364  0.00  0.00     0.003 A 
ATOM     30  C   LIG d   1       7.544  16.476   2.227  0.00  0.00     0.008 A 
BRANCH  27  31
ATOM     31  N   LIG d   1      11.198  15.117   3.892  0.00  0.00    -0.116 N 
ATOM     32  O   LIG d   1      12.244  15.543   3.386  0.00  0.00    -0.532 OA
ATOM     33  O   LIG d   1      11.136  14.277   4.802  0.00  0.00    -0.532 OA
ENDBRANCH  27  31
ENDBRANCH   2  25
BRANCH   4  34
ATOM     34  C   LIG d   1       8.962  19.055   0.045  0.00  0.00     0.291 C 
ATOM     35  O   LIG d   1       9.790  18.412  -0.579  0.00  0.00    -0.260 OA
BRANCH  34  36
ATOM     36  O   LIG d   1       7.744  19.447  -0.406  0.00  0.00    -0.323 OA
ATOM     37  C   LIG d   1       7.720  20.767  -0.952  0.00  0.00     0.213 C 
ENDBRANCH  34  36
ENDBRANCH   4  34
TORSDOF 11
ENDMDL
MODEL 6
REMARK VINA RESULT:      -6.3     28.264     30.998
REMARK  11 active torsions:
REMARK  status: ('A' for Active; 'I' for Inactive)
REMARK    1  A    between atoms: O_1  and  C_16 
REMARK    2  A    between atoms: O_1  and  C_23 
REMARK    3  A    between atoms: O_2  and  C_20 
REMARK    4  A    between atoms: N_8  and  C_22 
REMARK    5  A    between atoms: N_8  and  C_26 
REMARK    6  A    between atoms: N_9  and  C_24 
REMARK    7  A    between atoms: C_10  and  C_13 
REMARK    8  A    between atoms: C_11  and  C_16 
REMARK    9  A    between atoms: C_12  and  C_20 
REMARK   10  A    between atoms: C_22  and  C_23 
REMARK   11  A    between atoms: C_26  and  C_28 
ROOT
ATOM      1  N   LIG d   1       6.012  -2.017  25.039  0.00  0.00    -0.362 N 
ATOM      2  C   LIG d   1       8.828  -1.800  24.963  0.00  0.00     0.101 C 
ATOM      3  C   LIG d   1       7.941  -0.885  25.813  0.00  0.00     0.052 C 
ATOM      4  C   LIG d   1       8.065  -2.945  24.316  0.00  0.00     0.052 C 
ATOM      5  C   LIG d   1       6.595  -1.030  25.822  0.00  0.00     0.018 C 
ATOM      6  C   LIG d   1       6.716  -2.997  24.354  0.00  0.00     0.018 C 
ATOM      7  C   LIG d   1       5.647  -0.221  26.668  0.00  0.00     0.069 C 
ATOM      8  C   LIG d   1       5.896  -4.096  23.725  0.00  0.00     0.069 C 
ATOM      9  H   LIG d   1       5.004  -2.146  25.119  0.00  0.00     0.165 HD
ENDROOT
BRANCH   3  10
ATOM     10  C   LIG d   1       8.693   0.133  26.576  0.00  0.00     0.292 C 
ATOM     11  O   LIG d   1       9.188  -0.065  27.677  0.00  0.00    -0.259 OA
BRANCH  10  12
ATOM     12  O   LIG d   1       8.957   1.230  25.816  0.00  0.00    -0.316 OA
BRANCH  12  13
ATOM     13  C   LIG d   1       8.046   2.321  26.024  0.00  0.00     0.206 C 
BRANCH  13  14
ATOM     14  C   LIG d   1       7.475   2.783  24.676  0.00  0.00     0.261 C 
BRANCH  14  15
ATOM     15  N   LIG d   1       7.872   4.198  24.309  0.00  0.00    -0.069 N 
ATOM     16  C   LIG d   1       6.706   5.156  24.380  0.00  0.00     0.270 C 
ATOM     17  H   LIG d   1       8.218   4.208  23.343  0.00  0.00     0.279 HD
BRANCH  15  18
ATOM     18  C   LIG d   1       9.030   4.654  25.182  0.00  0.00     0.273 C 
BRANCH  18  19
ATOM     19  C   LIG d   1      10.339   4.802  24.455  0.00  0.00    -0.033 A 
ATOM     20  C   LIG d   1      10.987   6.046  24.426  0.00  0.00     0.009 A 
ATOM     21  C   LIG d   1      12.209   6.192  23.769  0.00  0.00     0.001 A 
ATOM     22  C   LIG d   1      12.794   5.101  23.132  0.00  0.00     0.000 A 
ATOM     23  C   LIG d   1      12.162   3.859  23.158  0.00  0.00     0.001 A 
ATOM     24  C   LIG d   1      10.942   3.706  23.819  0.00  0.00     0.009 A 
ENDBRANCH  18  19
ENDBRANCH  15  18
ENDBRANCH  14  15
ENDBRANCH  13  14
ENDBRANCH  12  13
ENDBRANCH  10  12
ENDBRANCH   3  10
BRANCH   2  25
ATOM     25  C   LIG d   1       9.586  -0.989  23.899  0.00  0.00    -0.042 A 
ATOM     26  C   LIG d   1       8.876  -0.306  22.899  0.00  0.00     0.044 A 
ATOM     27  C   LIG d   1       9.571   0.452  21.947  0.00  0.00     0.103 A 
ATOM     28  C   LIG d   1      10.969   0.536  21.969  0.00  0.00     0.036 A 
ATOM     29  C   LIG d   1      11.676  -0.135  22.964  0.00  0.00     0.003 A 
ATOM     30  C   LIG d   1      10.991  -0.888  23.923  0.00  0.00     0.008 A 
BRANCH  27  31
ATOM     31  N   LIG d   1       8.828   1.138  20.891  0.00  0.00    -0.116 N 
ATOM     32  O   LIG d   1       9.105   0.857  19.718  0.00  0.00    -0.532 OA
ATOM     33  O   LIG d   1       8.008   1.998  21.245  0.00  0.00    -0.532 OA
ENDBRANCH  27  31
ENDBRANCH   2  25
BRANCH   4  34
ATOM     34  C   LIG d   1       8.863  -3.984  23.624  0.00  0.00     0.291 C 
ATOM     35  O   LIG d   1       9.166  -3.954  22.443  0.00  0.00    -0.260 OA
BRANCH  34  36
ATOM     36  O   LIG d   1       9.189  -4.957  24.512  0.00  0.00    -0.323 OA
ATOM     37  C   LIG d   1      10.542  -4.902  24.967  0.00  0.00     0.213 C 
ENDBRANCH  34  36
ENDBRANCH   4  34
TORSDOF 11
ENDMDL
MODEL 7
REMARK VINA RESULT:      -6.3     25.304     28.232
REMARK  11 active torsions:
REMARK  status: ('A' for Active; 'I' for Inactive)
REMARK    1  A    between atoms: O_1  and  C_16 
REMARK    2  A    between atoms: O_1  and  C_23 
REMARK    3  A    between atoms: O_2  and  C_20 
REMARK    4  A    between atoms: N_8  and  C_22 
REMARK    5  A    between atoms: N_8  and  C_26 
REMARK    6  A    between atoms: N_9  and  C_24 
REMARK    7  A    between atoms: C_10  and  C_13 
REMARK    8  A    between atoms: C_11  and  C_16 
REMARK    9  A    between atoms: C_12  and  C_20 
REMARK   10  A    between atoms: C_22  and  C_23 
REMARK   11  A    between atoms: C_26  and  C_28 
ROOT
ATOM      1  N   LIG d   1      25.883  -2.944  23.634  0.00  0.00    -0.362 N 
ATOM      2  C   LIG d   1      26.561  -2.264  20.977  0.00  0.00     0.101 C 
ATOM      3  C   LIG d   1      26.612  -1.264  22.135  0.00  0.00     0.052 C 
ATOM      4  C   LIG d   1      26.291  -3.692  21.426  0.00  0.00     0.052 C 
ATOM      5  C   LIG d   1      26.283  -1.637  23.394  0.00  0.00     0.018 C 
ATOM      6  C   LIG d   1      25.945  -3.970  22.702  0.00  0.00     0.018 C 
ATOM      7  C   LIG d   1      26.360  -0.745  24.606  0.00  0.00     0.069 C 
ATOM      8  C   LIG d   1      25.653  -5.359  23.212  0.00  0.00     0.069 C 
ATOM      9  H   LIG d   1      25.707  -3.213  24.602  0.00  0.00     0.165 HD
ENDROOT
BRANCH   3  10
ATOM     10  C   LIG d   1      27.034   0.094  21.732  0.00  0.00     0.292 C 
ATOM     11  O   LIG d   1      28.137   0.361  21.275  0.00  0.00    -0.259 OA
BRANCH  10  12
ATOM     12  O   LIG d   1      25.982   0.958  21.720  0.00  0.00    -0.316 OA
BRANCH  12  13
ATOM     13  C   LIG d   1      26.356   2.339  21.850  0.00  0.00     0.206 C 
BRANCH  13  14
ATOM     14  C   LIG d   1      25.295   3.088  22.668  0.00  0.00     0.261 C 
BRANCH  14  15
ATOM     15  N   LIG d   1      24.997   2.437  24.003  0.00  0.00    -0.069 N 
ATOM     16  C   LIG d   1      25.542   3.235  25.164  0.00  0.00     0.270 C 
ATOM     17  H   LIG d   1      25.442   1.512  24.032  0.00  0.00     0.279 HD
BRANCH  15  18
ATOM     18  C   LIG d   1      23.502   2.194  24.139  0.00  0.00     0.273 C 
BRANCH  18  19
ATOM     19  C   LIG d   1      23.119   0.753  24.329  0.00  0.00    -0.033 A 
ATOM     20  C   LIG d   1      22.842  -0.052  23.213  0.00  0.00     0.009 A 
ATOM     21  C   LIG d   1      22.501  -1.395  23.375  0.00  0.00     0.001 A 
ATOM     22  C   LIG d   1      22.429  -1.947  24.652  0.00  0.00     0.000 A 
ATOM     23  C   LIG d   1      22.707  -1.160  25.768  0.00  0.00     0.001 A 
ATOM     24  C   LIG d   1      23.054   0.183  25.610  0.00  0.00     0.009 A 
ENDBRANCH  18  19
ENDBRANCH  15  18
ENDBRANCH  14  15
ENDBRANCH  13  14
ENDBRANCH  12  13
ENDBRANCH  10  12
ENDBRANCH   3  10
BRANCH   2  25
ATOM     25  C   LIG d   1      25.528  -1.827  19.924  0.00  0.00    -0.042 A 
ATOM     26  C   LIG d   1      25.942  -1.528  18.617  0.00  0.00     0.044 A 
ATOM     27  C   LIG d   1      24.993  -1.155  17.656  0.00  0.00     0.103 A 
ATOM     28  C   LIG d   1      23.633  -1.068  17.977  0.00  0.00     0.036 A 
ATOM     29  C   LIG d   1      23.219  -1.371  19.273  0.00  0.00     0.003 A 
ATOM     30  C   LIG d   1      24.157  -1.752  20.236  0.00  0.00     0.008 A 
BRANCH  27  31
ATOM     31  N   LIG d   1      25.432  -0.816  16.303  0.00  0.00    -0.116 N 
ATOM     32  O   LIG d   1      24.614  -0.270  15.553  0.00  0.00    -0.532 OA
ATOM     33  O   LIG d   1      26.582  -1.152  15.983  0.00  0.00    -0.532 OA
ENDBRANCH  27  31
ENDBRANCH   2  25
BRANCH   4  34
ATOM     34  C   LIG d   1      26.402  -4.756  20.402  0.00  0.00     0.291 C 
ATOM     35  O   LIG d   1      27.452  -5.242  20.017  0.00  0.00    -0.260 OA
BRANCH  34  36
ATOM     36  O   LIG d   1      25.159  -5.089  19.971  0.00  0.00    -0.323 OA
ATOM     37  C   LIG d   1      25.072  -5.326  18.565  0.00  0.00     0.213 C 
ENDBRANCH  34  36
ENDBRANCH   4  34
TORSDOF 11
ENDMDL
MODEL 8
REMARK VINA RESULT:      -6.3     30.420     33.957
REMARK  11 active torsions:
REMARK  status: ('A' for Active; 'I' for Inactive)
REMARK    1  A    between atoms: O_1  and  C_16 
REMARK    2  A    between atoms: O_1  and  C_23 
REMARK    3  A    between atoms: O_2  and  C_20 
REMARK    4  A    between atoms: N_8  and  C_22 
REMARK    5  A    between atoms: N_8  and  C_26 
REMARK    6  A    between atoms: N_9  and  C_24 
REMARK    7  A    between atoms: C_10  and  C_13 
REMARK    8  A    between atoms: C_11  and  C_16 
REMARK    9  A    between atoms: C_12  and  C_20 
REMARK   10  A    between atoms: C_22  and  C_23 
REMARK   11  A    between atoms: C_26  and  C_28 
ROOT
ATOM      1  N   LIG d   1       2.297  31.240 -14.690  0.00  0.00    -0.362 N 
ATOM      2  C   LIG d   1       2.989  29.057 -13.036  0.00  0.00     0.101 C 
ATOM      3  C   LIG d   1       3.304  30.512 -12.677  0.00  0.00     0.052 C 
ATOM      4  C   LIG d   1       2.111  28.919 -14.269  0.00  0.00     0.052 C 
ATOM      5  C   LIG d   1       2.948  31.527 -13.499  0.00  0.00     0.018 C 
ATOM      6  C   LIG d   1       1.825  29.986 -15.047  0.00  0.00     0.018 C 
ATOM      7  C   LIG d   1       3.160  32.989 -13.205  0.00  0.00     0.069 C 
ATOM      8  C   LIG d   1       0.969  29.918 -16.288  0.00  0.00     0.069 C 
ATOM      9  H   LIG d   1       1.981  32.028 -15.255  0.00  0.00     0.165 HD
ENDROOT
BRANCH   3  10
ATOM     10  C   LIG d   1       4.019  30.667 -11.392  0.00  0.00     0.292 C 
ATOM     11  O   LIG d   1       3.559  30.336 -10.309  0.00  0.00    -0.259 OA
BRANCH  10  12
ATOM     12  O   LIG d   1       5.321  31.010 -11.586  0.00  0.00    -0.316 OA
BRANCH  12  13
ATOM     13  C   LIG d   1       6.240  30.355 -10.696  0.00  0.00     0.206 C 
BRANCH  13  14
ATOM     14  C   LIG d   1       7.594  30.171 -11.393  0.00  0.00     0.261 C 
BRANCH  14  15
ATOM     15  N   LIG d   1       7.970  31.332 -12.291  0.00  0.00    -0.069 N 
ATOM     16  C   LIG d   1       8.799  32.369 -11.569  0.00  0.00     0.270 C 
ATOM     17  H   LIG d   1       7.114  31.797 -12.614  0.00  0.00     0.279 HD
BRANCH  15  18
ATOM     18  C   LIG d   1       8.672  30.817 -13.537  0.00  0.00     0.273 C 
BRANCH  18  19
ATOM     19  C   LIG d   1       7.811  30.785 -14.770  0.00  0.00    -0.033 A 
ATOM     20  C   LIG d   1       8.229  30.062 -15.898  0.00  0.00     0.009 A 
ATOM     21  C   LIG d   1       7.432  30.011 -17.042  0.00  0.00     0.001 A 
ATOM     22  C   LIG d   1       6.213  30.683 -17.072  0.00  0.00     0.000 A 
ATOM     23  C   LIG d   1       5.784  31.400 -15.957  0.00  0.00     0.001 A 
ATOM     24  C   LIG d   1       6.575  31.449 -14.808  0.00  0.00     0.009 A 
ENDBRANCH  18  19
ENDBRANCH  15  18
ENDBRANCH  14  15
ENDBRANCH  13  14
ENDBRANCH  12  13
ENDBRANCH  10  12
ENDBRANCH   3  10
BRANCH   2  25
ATOM     25  C   LIG d   1       4.284  28.244 -13.204  0.00  0.00    -0.042 A 
ATOM     26  C   LIG d   1       4.801  27.516 -12.121  0.00  0.00     0.044 A 
ATOM     27  C   LIG d   1       5.967  26.757 -12.288  0.00  0.00     0.103 A 
ATOM     28  C   LIG d   1       6.634  26.715 -13.518  0.00  0.00     0.036 A 
ATOM     29  C   LIG d   1       6.118  27.431 -14.597  0.00  0.00     0.003 A 
ATOM     30  C   LIG d   1       4.952  28.185 -14.443  0.00  0.00     0.008 A 
BRANCH  27  31
ATOM     31  N   LIG d   1       6.518  26.024 -11.149  0.00  0.00    -0.116 N 
ATOM     32  O   LIG d   1       6.081  26.298 -10.024  0.00  0.00    -0.532 OA
ATOM     33  O   LIG d   1       7.428  25.215 -11.385  0.00  0.00    -0.532 OA
ENDBRANCH  27  31
ENDBRANCH   2  25
BRANCH   4  34
ATOM     34  C   LIG d   1       1.603  27.565 -14.591  0.00  0.00     0.291 C 
ATOM     35  O   LIG d   1       1.776  26.994 -15.655  0.00  0.00    -0.260 OA
BRANCH  34  36
ATOM     36  O   LIG d   1       0.924  27.080 -13.521  0.00  0.00    -0.323 OA
ATOM     37  C   LIG d   1      -0.494  27.054 -13.693  0.00  0.00     0.213 C 
ENDBRANCH  34  36
ENDBRANCH   4  34
TORSDOF 11
ENDMDL
MODEL 9
REMARK VINA RESULT:      -6.3      2.000      4.573
REMARK  11 active torsions:
REMARK  status: ('A' for Active; 'I' for Inactive)
REMARK    1  A    between atoms: O_1  and  C_16 
REMARK    2  A    between atoms: O_1  and  C_23 
REMARK    3  A    between atoms: O_2  and  C_20 
REMARK    4  A    between atoms: N_8  and  C_22 
REMARK    5  A    between atoms: N_8  and  C_26 
REMARK    6  A    between atoms: N_9  and  C_24 
REMARK    7  A    between atoms: C_10  and  C_13 
REMARK    8  A    between atoms: C_11  and  C_16 
REMARK    9  A    between atoms: C_12  and  C_20 
REMARK   10  A    between atoms: C_22  and  C_23 
REMARK   11  A    between atoms: C_26  and  C_28 
ROOT
ATOM      1  N   LIG d   1      17.490  -1.697  -8.265  0.00  0.00    -0.362 N 
ATOM      2  C   LIG d   1      17.063  -1.607  -5.474  0.00  0.00     0.101 C 
ATOM      3  C   LIG d   1      18.410  -1.282  -6.125  0.00  0.00     0.052 C 
ATOM      4  C   LIG d   1      15.940  -1.801  -6.480  0.00  0.00     0.052 C 
ATOM      5  C   LIG d   1      18.566  -1.332  -7.469  0.00  0.00     0.018 C 
ATOM      6  C   LIG d   1      16.191  -1.863  -7.806  0.00  0.00     0.018 C 
ATOM      7  C   LIG d   1      19.830  -0.972  -8.204  0.00  0.00     0.069 C 
ATOM      8  C   LIG d   1      15.127  -2.063  -8.857  0.00  0.00     0.069 C 
ATOM      9  H   LIG d   1      17.618  -1.660  -9.276  0.00  0.00     0.165 HD
ENDROOT
BRANCH   3  10
ATOM     10  C   LIG d   1      19.471  -0.932  -5.157  0.00  0.00     0.292 C 
ATOM     11  O   LIG d   1      20.501  -1.574  -5.009  0.00  0.00    -0.259 OA
BRANCH  10  12
ATOM     12  O   LIG d   1      19.266   0.302  -4.620  0.00  0.00    -0.316 OA
BRANCH  12  13
ATOM     13  C   LIG d   1      20.101   1.330  -5.177  0.00  0.00     0.206 C 
BRANCH  13  14
ATOM     14  C   LIG d   1      19.230   2.377  -5.885  0.00  0.00     0.261 C 
BRANCH  14  15
ATOM     15  N   LIG d   1      18.488   3.288  -4.927  0.00  0.00    -0.069 N 
ATOM     16  C   LIG d   1      19.236   3.484  -3.630  0.00  0.00     0.270 C 
ATOM     17  H   LIG d   1      17.582   2.864  -4.697  0.00  0.00     0.279 HD
BRANCH  15  18
ATOM     18  C   LIG d   1      18.180   4.612  -5.607  0.00  0.00     0.273 C 
BRANCH  18  19
ATOM     19  C   LIG d   1      18.808   5.811  -4.951  0.00  0.00    -0.033 A 
ATOM     20  C   LIG d   1      20.118   6.188  -5.286  0.00  0.00     0.009 A 
ATOM     21  C   LIG d   1      20.705   7.307  -4.696  0.00  0.00     0.001 A 
ATOM     22  C   LIG d   1      19.994   8.059  -3.765  0.00  0.00     0.000 A 
ATOM     23  C   LIG d   1      18.691   7.698  -3.427  0.00  0.00     0.001 A 
ATOM     24  C   LIG d   1      18.096   6.583  -4.018  0.00  0.00     0.009 A 
ENDBRANCH  18  19
ENDBRANCH  15  18
ENDBRANCH  14  15
ENDBRANCH  13  14
ENDBRANCH  12  13
ENDBRANCH  10  12
ENDBRANCH   3  10
BRANCH   2  25
ATOM     25  C   LIG d   1      17.183  -2.838  -4.559  0.00  0.00    -0.042 A 
ATOM     26  C   LIG d   1      17.705  -4.040  -5.064  0.00  0.00     0.044 A 
ATOM     27  C   LIG d   1      17.835  -5.150  -4.219  0.00  0.00     0.103 A 
ATOM     28  C   LIG d   1      17.447  -5.087  -2.875  0.00  0.00     0.036 A 
ATOM     29  C   LIG d   1      16.936  -3.893  -2.370  0.00  0.00     0.003 A 
ATOM     30  C   LIG d   1      16.809  -2.777  -3.202  0.00  0.00     0.008 A 
BRANCH  27  31
ATOM     31  N   LIG d   1      18.351  -6.407  -4.757  0.00  0.00    -0.116 N 
ATOM     32  O   LIG d   1      17.589  -7.382  -4.773  0.00  0.00    -0.532 OA
ATOM     33  O   LIG d   1      19.540  -6.424  -5.110  0.00  0.00    -0.532 OA
ENDBRANCH  27  31
ENDBRANCH   2  25
BRANCH   4  34
ATOM     34  C   LIG d   1      14.567  -1.941  -5.943  0.00  0.00     0.291 C 
ATOM     35  O   LIG d   1      13.747  -1.038  -5.888  0.00  0.00    -0.260 OA
BRANCH  34  36
ATOM     36  O   LIG d   1      14.380  -3.219  -5.527  0.00  0.00    -0.323 OA
ATOM     37  C   LIG d   1      13.401  -3.940  -6.276  0.00  0.00     0.213 C 
ENDBRANCH  34  36
ENDBRANCH   4  34
TORSDOF 11
ENDMDL
