MODEL 1
REMARK VINA RESULT:      -8.2      0.000      0.000
REMARK  13 active torsions:
REMARK  status: ('A' for Active; 'I' for Inactive)
REMARK    1  A    between atoms: O_4  and  C_21 
REMARK    2  A    between atoms: O_4  and  C_27 
REMARK    3  A    between atoms: O_5  and  C_43 
REMARK    4  A    between atoms: N_7  and  C_19 
REMARK    5  A    between atoms: N_9  and  C_33 
REMARK    6  A    between atoms: N_10  and  C_39 
REMARK    7  A    between atoms: N_12  and  C_40 
REMARK    8  A    between atoms: N_13  and  C_44 
REMARK    9  A    between atoms: C_15  and  C_19 
REMARK   10  A    between atoms: C_15  and  C_20 
REMARK   11  A    between atoms: C_17  and  C_21 
REMARK   12  A    between atoms: C_40  and  C_45 
REMARK   13  A    between atoms: C_40  and  C_43 
ROOT
ATOM      1  F   LIG d   1      17.521   7.109  -4.022  0.00  0.00    -0.204 F 
ATOM      2  F   LIG d   1      20.762  10.132  -2.460  0.00  0.00    -0.204 F 
ATOM      3  C   LIG d   1      19.793   6.413  -4.012  0.00  0.00     0.032 A 
ATOM      4  C   LIG d   1      18.809   7.382  -3.771  0.00  0.00     0.141 A 
ATOM      5  C   LIG d   1      21.122   6.733  -3.665  0.00  0.00     0.003 A 
ATOM      6  C   LIG d   1      19.127   8.639  -3.266  0.00  0.00     0.059 A 
ATOM      7  C   LIG d   1      21.447   7.983  -3.137  0.00  0.00     0.030 A 
ATOM      8  C   LIG d   1      20.447   8.929  -2.955  0.00  0.00     0.142 A 
ENDROOT
BRANCH   3   9
ATOM      9  C   LIG d   1      19.443   5.031  -4.565  0.00  0.00     0.136 C 
ATOM     10  O   LIG d   1      19.624   5.067  -6.015  0.00  0.00    -0.353 OA
ATOM     11  C   LIG d   1      18.332   5.250  -6.611  0.00  0.00     0.145 C 
ATOM     12  C   LIG d   1      17.441   4.340  -5.798  0.00  0.00     0.063 C 
ATOM     13  C   LIG d   1      17.950   4.629  -4.391  0.00  0.00     0.039 C 
BRANCH  12  14
ATOM     14  C   LIG d   1      17.669   2.899  -6.259  0.00  0.00     0.151 C 
BRANCH  14  15
ATOM     15  O   LIG d   1      16.893   1.973  -5.500  0.00  0.00    -0.331 OA
BRANCH  15  16
ATOM     16  C   LIG d   1      16.456   0.887  -6.217  0.00  0.00     0.094 A 
ATOM     17  C   LIG d   1      17.273   0.000  -6.908  0.00  0.00     0.026 A 
ATOM     18  C   LIG d   1      16.725  -1.064  -7.633  0.00  0.00     0.019 A 
ATOM     19  C   LIG d   1      15.343  -1.293  -7.716  0.00  0.00     0.056 A 
ATOM     20  C   LIG d   1      14.544  -0.411  -6.966  0.00  0.00     0.019 A 
ATOM     21  C   LIG d   1      15.085   0.663  -6.235  0.00  0.00     0.026 A 
BRANCH  19  22
ATOM     22  N   LIG d   1      14.813  -2.375  -8.447  0.00  0.00    -0.345 N 
ATOM     23  C   LIG d   1      13.750  -3.182  -7.787  0.00  0.00     0.119 C 
ATOM     24  C   LIG d   1      13.429  -4.467  -8.583  0.00  0.00     0.101 C 
ATOM     25  N   LIG d   1      13.054  -4.147  -9.978  0.00  0.00    -0.249 NA
ATOM     26  C   LIG d   1      14.146  -3.419 -10.660  0.00  0.00     0.101 C 
ATOM     27  C   LIG d   1      14.523  -2.136  -9.891  0.00  0.00     0.119 C 
BRANCH  25  28
ATOM     28  C   LIG d   1      12.599  -5.222 -10.759  0.00  0.00     0.037 A 
ATOM     29  C   LIG d   1      11.655  -6.151 -10.324  0.00  0.00     0.013 A 
ATOM     30  C   LIG d   1      11.216  -7.187 -11.158  0.00  0.00     0.019 A 
ATOM     31  C   LIG d   1      11.697  -7.331 -12.464  0.00  0.00     0.070 A 
ATOM     32  C   LIG d   1      12.679  -6.424 -12.888  0.00  0.00     0.019 A 
ATOM     33  C   LIG d   1      13.122  -5.393 -12.046  0.00  0.00     0.013 A 
BRANCH  31  34
ATOM     34  N   LIG d   1      11.182  -8.327 -13.329  0.00  0.00    -0.240 N 
ATOM     35  C   LIG d   1      10.611  -8.151 -14.581  0.00  0.00     0.352 A 
ATOM     36  O   LIG d   1      10.357  -7.107 -15.164  0.00  0.00    -0.244 OA
ATOM     37  N   LIG d   1      10.360  -9.448 -15.060  0.00  0.00    -0.200 N 
ATOM     38  N   LIG d   1      10.697 -10.378 -14.100  0.00  0.00    -0.144 NA
ATOM     39  C   LIG d   1      11.169  -9.663 -13.130  0.00  0.00     0.207 A 
BRANCH  37  40
ATOM     40  C   LIG d   1       9.604  -9.843 -16.250  0.00  0.00     0.137 C 
BRANCH  40  41
ATOM     41  C   LIG d   1      10.202 -11.113 -16.889  0.00  0.00     0.027 C 
ATOM     42  C   LIG d   1      11.630 -10.917 -17.382  0.00  0.00     0.002 C 
ENDBRANCH  40  41
BRANCH  40  43
ATOM     43  C   LIG d   1       8.071  -9.997 -16.026  0.00  0.00     0.133 C 
ATOM     44  C   LIG d   1       7.222  -9.481 -17.183  0.00  0.00     0.034 C 
BRANCH  43  45
ATOM     45  O   LIG d   1       7.650  -9.414 -14.793  0.00  0.00    -0.383 OA
ATOM     46  H   LIG d   1       8.026  -9.923 -14.057  0.00  0.00     0.210 HD
ENDBRANCH  43  45
ENDBRANCH  40  43
ENDBRANCH  37  40
ENDBRANCH  31  34
ENDBRANCH  25  28
ENDBRANCH  19  22
ENDBRANCH  15  16
ENDBRANCH  14  15
ENDBRANCH  12  14
BRANCH   9  47
ATOM     47  C   LIG d   1      20.355   3.937  -3.960  0.00  0.00     0.161 C 
BRANCH  47  48
ATOM     48  N   LIG d   1      21.174   3.237  -4.927  0.00  0.00    -0.228 N 
ATOM     49  N   LIG d   1      22.304   3.785  -5.413  0.00  0.00    -0.145 NA
ATOM     50  C   LIG d   1      22.733   2.817  -6.229  0.00  0.00     0.221 A 
ATOM     51  N   LIG d   1      21.963   1.689  -6.251  0.00  0.00    -0.201 NA
ATOM     52  C   LIG d   1      20.994   1.978  -5.412  0.00  0.00     0.197 A 
ENDBRANCH  47  48
ENDBRANCH   9  47
ENDBRANCH   3   9
TORSDOF 13
ENDMDL
MODEL 2
REMARK VINA RESULT:      -7.8     20.366     21.877
REMARK  13 active torsions:
REMARK  status: ('A' for Active; 'I' for Inactive)
REMARK    1  A    between atoms: O_4  and  C_21 
REMARK    2  A    between atoms: O_4  and  C_27 
REMARK    3  A    between atoms: O_5  and  C_43 
REMARK    4  A    between atoms: N_7  and  C_19 
REMARK    5  A    between atoms: N_9  and  C_33 
REMARK    6  A    between atoms: N_10  and  C_39 
REMARK    7  A    between atoms: N_12  and  C_40 
REMARK    8  A    between atoms: N_13  and  C_44 
REMARK    9  A    between atoms: C_15  and  C_19 
REMARK   10  A    between atoms: C_15  and  C_20 
REMARK   11  A    between atoms: C_17  and  C_21 
REMARK   12  A    between atoms: C_40  and  C_45 
REMARK   13  A    between atoms: C_40  and  C_43 
ROOT
ATOM      1  F   LIG d   1      11.640  22.461   1.618  0.00  0.00    -0.204 F 
ATOM      2  F   LIG d   1       9.369  24.813  -1.757  0.00  0.00    -0.204 F 
ATOM      3  C   LIG d   1       9.707  21.465   0.663  0.00  0.00     0.032 A 
ATOM      4  C   LIG d   1      10.619  22.525   0.753  0.00  0.00     0.141 A 
ATOM      5  C   LIG d   1       8.693  21.558  -0.314  0.00  0.00     0.003 A 
ATOM      6  C   LIG d   1      10.504  23.661  -0.044  0.00  0.00     0.059 A 
ATOM      7  C   LIG d   1       8.584  22.683  -1.132  0.00  0.00     0.030 A 
ATOM      8  C   LIG d   1       9.483  23.729  -0.980  0.00  0.00     0.142 A 
ENDROOT
BRANCH   3   9
ATOM      9  C   LIG d   1       9.834  20.217   1.537  0.00  0.00     0.136 C 
ATOM     10  O   LIG d   1      10.881  19.372   0.966  0.00  0.00    -0.353 OA
ATOM     11  C   LIG d   1      10.240  18.344   0.195  0.00  0.00     0.145 C 
ATOM     12  C   LIG d   1       9.073  17.936   1.063  0.00  0.00     0.063 C 
ATOM     13  C   LIG d   1       8.577  19.299   1.532  0.00  0.00     0.039 C 
BRANCH  12  14
ATOM     14  C   LIG d   1       9.595  17.042   2.190  0.00  0.00     0.151 C 
BRANCH  14  15
ATOM     15  O   LIG d   1      10.075  15.793   1.693  0.00  0.00    -0.331 OA
BRANCH  15  16
ATOM     16  C   LIG d   1       9.279  14.720   2.011  0.00  0.00     0.094 A 
ATOM     17  C   LIG d   1       8.199  14.273   1.260  0.00  0.00     0.026 A 
ATOM     18  C   LIG d   1       7.433  13.182   1.687  0.00  0.00     0.019 A 
ATOM     19  C   LIG d   1       7.694  12.491   2.880  0.00  0.00     0.056 A 
ATOM     20  C   LIG d   1       8.823  12.934   3.593  0.00  0.00     0.019 A 
ATOM     21  C   LIG d   1       9.599  14.031   3.174  0.00  0.00     0.026 A 
BRANCH  19  22
ATOM     22  N   LIG d   1       6.913  11.391   3.287  0.00  0.00    -0.345 N 
ATOM     23  C   LIG d   1       7.194  10.822   4.634  0.00  0.00     0.119 C 
ATOM     24  C   LIG d   1       6.449   9.487   4.859  0.00  0.00     0.101 C 
ATOM     25  N   LIG d   1       4.992   9.651   4.652  0.00  0.00    -0.249 NA
ATOM     26  C   LIG d   1       4.709  10.135   3.283  0.00  0.00     0.101 C 
ATOM     27  C   LIG d   1       5.451  11.458   2.997  0.00  0.00     0.119 C 
BRANCH  25  28
ATOM     28  C   LIG d   1       4.193   8.541   4.970  0.00  0.00     0.037 A 
ATOM     29  C   LIG d   1       3.665   8.306   6.239  0.00  0.00     0.013 A 
ATOM     30  C   LIG d   1       2.848   7.196   6.492  0.00  0.00     0.019 A 
ATOM     31  C   LIG d   1       2.519   6.282   5.484  0.00  0.00     0.070 A 
ATOM     32  C   LIG d   1       3.085   6.495   4.219  0.00  0.00     0.019 A 
ATOM     33  C   LIG d   1       3.910   7.603   3.972  0.00  0.00     0.013 A 
BRANCH  31  34
ATOM     34  N   LIG d   1       1.622   5.214   5.727  0.00  0.00    -0.240 N 
ATOM     35  C   LIG d   1       0.508   4.855   4.983  0.00  0.00     0.352 A 
ATOM     36  O   LIG d   1       0.020   5.425   4.017  0.00  0.00    -0.244 OA
ATOM     37  N   LIG d   1       0.026   3.678   5.581  0.00  0.00    -0.200 N 
ATOM     38  N   LIG d   1       0.775   3.375   6.697  0.00  0.00    -0.144 NA
ATOM     39  C   LIG d   1       1.682   4.299   6.719  0.00  0.00     0.207 A 
BRANCH  37  40
ATOM     40  C   LIG d   1      -1.230   2.975   5.310  0.00  0.00     0.137 C 
BRANCH  40  41
ATOM     41  C   LIG d   1      -1.011   1.449   5.268  0.00  0.00     0.027 C 
ATOM     42  C   LIG d   1      -1.585   0.731   6.484  0.00  0.00     0.002 C 
ENDBRANCH  40  41
BRANCH  40  43
ATOM     43  C   LIG d   1      -2.402   3.347   6.265  0.00  0.00     0.133 C 
ATOM     44  C   LIG d   1      -3.560   4.060   5.574  0.00  0.00     0.034 C 
BRANCH  43  45
ATOM     45  O   LIG d   1      -1.955   4.093   7.397  0.00  0.00    -0.383 OA
ATOM     46  H   LIG d   1      -2.045   3.546   8.193  0.00  0.00     0.210 HD
ENDBRANCH  43  45
ENDBRANCH  40  43
ENDBRANCH  37  40
ENDBRANCH  31  34
ENDBRANCH  25  28
ENDBRANCH  19  22
ENDBRANCH  15  16
ENDBRANCH  14  15
ENDBRANCH  12  14
BRANCH   9  47
ATOM     47  C   LIG d   1      10.208  20.586   2.992  0.00  0.00     0.161 C 
BRANCH  47  48
ATOM     48  N   LIG d   1      11.361  19.882   3.511  0.00  0.00    -0.228 N 
ATOM     49  N   LIG d   1      11.223  18.851   4.367  0.00  0.00    -0.145 NA
ATOM     50  C   LIG d   1      12.498  18.501   4.562  0.00  0.00     0.221 A 
ATOM     51  N   LIG d   1      13.416  19.223   3.852  0.00  0.00    -0.201 NA
ATOM     52  C   LIG d   1      12.669  20.077   3.190  0.00  0.00     0.197 A 
ENDBRANCH  47  48
ENDBRANCH   9  47
ENDBRANCH   3   9
TORSDOF 13
ENDMDL
MODEL 3
REMARK VINA RESULT:      -7.8     31.565     33.228
REMARK  13 active torsions:
REMARK  status: ('A' for Active; 'I' for Inactive)
REMARK    1  A    between atoms: O_4  and  C_21 
REMARK    2  A    between atoms: O_4  and  C_27 
REMARK    3  A    between atoms: O_5  and  C_43 
REMARK    4  A    between atoms: N_7  and  C_19 
REMARK    5  A    between atoms: N_9  and  C_33 
REMARK    6  A    between atoms: N_10  and  C_39 
REMARK    7  A    between atoms: N_12  and  C_40 
REMARK    8  A    between atoms: N_13  and  C_44 
REMARK    9  A    between atoms: C_15  and  C_19 
REMARK   10  A    between atoms: C_15  and  C_20 
REMARK   11  A    between atoms: C_17  and  C_21 
REMARK   12  A    between atoms: C_40  and  C_45 
REMARK   13  A    between atoms: C_40  and  C_43 
ROOT
ATOM      1  F   LIG d   1      27.279 -17.900  23.998  0.00  0.00    -0.204 F 
ATOM      2  F   LIG d   1      26.329 -13.932  26.331  0.00  0.00    -0.204 F 
ATOM      3  C   LIG d   1      25.011 -17.422  24.523  0.00  0.00     0.032 A 
ATOM      4  C   LIG d   1      26.373 -17.092  24.567  0.00  0.00     0.141 A 
ATOM      5  C   LIG d   1      24.099 -16.500  25.077  0.00  0.00     0.003 A 
ATOM      6  C   LIG d   1      26.826 -15.931  25.186  0.00  0.00     0.059 A 
ATOM      7  C   LIG d   1      24.543 -15.323  25.681  0.00  0.00     0.030 A 
ATOM      8  C   LIG d   1      25.904 -15.056  25.740  0.00  0.00     0.142 A 
ENDROOT
BRANCH   3   9
ATOM      9  C   LIG d   1      24.513 -18.696  23.841  0.00  0.00     0.136 C 
ATOM     10  O   LIG d   1      23.452 -19.265  24.669  0.00  0.00    -0.353 OA
ATOM     11  C   LIG d   1      24.029 -20.323  25.450  0.00  0.00     0.145 C 
ATOM     12  C   LIG d   1      24.933 -21.028  24.466  0.00  0.00     0.063 C 
ATOM     13  C   LIG d   1      25.569 -19.837  23.761  0.00  0.00     0.039 C 
BRANCH  12  14
ATOM     14  C   LIG d   1      24.070 -21.903  23.554  0.00  0.00     0.151 C 
BRANCH  14  15
ATOM     15  O   LIG d   1      24.863 -22.632  22.618  0.00  0.00    -0.331 OA
BRANCH  15  16
ATOM     16  C   LIG d   1      24.626 -22.304  21.306  0.00  0.00     0.094 A 
ATOM     17  C   LIG d   1      25.364 -21.392  20.562  0.00  0.00     0.026 A 
ATOM     18  C   LIG d   1      25.023 -21.108  19.235  0.00  0.00     0.019 A 
ATOM     19  C   LIG d   1      23.930 -21.703  18.587  0.00  0.00     0.056 A 
ATOM     20  C   LIG d   1      23.232 -22.659  19.348  0.00  0.00     0.019 A 
ATOM     21  C   LIG d   1      23.566 -22.952  20.684  0.00  0.00     0.026 A 
BRANCH  19  22
ATOM     22  N   LIG d   1      23.608 -21.406  17.248  0.00  0.00    -0.345 N 
ATOM     23  C   LIG d   1      22.183 -21.097  16.946  0.00  0.00     0.119 C 
ATOM     24  C   LIG d   1      21.922 -21.030  15.424  0.00  0.00     0.101 C 
ATOM     25  N   LIG d   1      22.821 -20.049  14.774  0.00  0.00    -0.249 NA
ATOM     26  C   LIG d   1      24.238 -20.406  15.004  0.00  0.00     0.101 C 
ATOM     27  C   LIG d   1      24.548 -20.511  16.512  0.00  0.00     0.119 C 
BRANCH  25  28
ATOM     28  C   LIG d   1      22.579 -19.794  13.415  0.00  0.00     0.037 A 
ATOM     29  C   LIG d   1      21.315 -19.522  12.892  0.00  0.00     0.013 A 
ATOM     30  C   LIG d   1      21.137 -19.243  11.530  0.00  0.00     0.019 A 
ATOM     31  C   LIG d   1      22.216 -19.218  10.639  0.00  0.00     0.070 A 
ATOM     32  C   LIG d   1      23.480 -19.534  11.157  0.00  0.00     0.019 A 
ATOM     33  C   LIG d   1      23.653 -19.820  12.519  0.00  0.00     0.013 A 
BRANCH  31  34
ATOM     34  N   LIG d   1      22.038 -18.849   9.284  0.00  0.00    -0.240 N 
ATOM     35  C   LIG d   1      22.280 -17.613   8.701  0.00  0.00     0.352 A 
ATOM     36  O   LIG d   1      22.615 -16.568   9.241  0.00  0.00    -0.244 OA
ATOM     37  N   LIG d   1      22.045 -17.797   7.328  0.00  0.00    -0.200 N 
ATOM     38  N   LIG d   1      21.601 -19.081   7.094  0.00  0.00    -0.144 NA
ATOM     39  C   LIG d   1      21.626 -19.634   8.265  0.00  0.00     0.207 A 
BRANCH  37  40
ATOM     40  C   LIG d   1      21.977 -16.780   6.277  0.00  0.00     0.137 C 
BRANCH  40  41
ATOM     41  C   LIG d   1      23.262 -16.780   5.424  0.00  0.00     0.027 C 
ATOM     42  C   LIG d   1      24.515 -17.089   6.234  0.00  0.00     0.002 C 
ENDBRANCH  40  41
BRANCH  40  43
ATOM     43  C   LIG d   1      20.708 -16.857   5.379  0.00  0.00     0.133 C 
ATOM     44  C   LIG d   1      20.499 -15.630   4.497  0.00  0.00     0.034 C 
BRANCH  43  45
ATOM     45  O   LIG d   1      19.532 -17.137   6.138  0.00  0.00    -0.383 OA
ATOM     46  H   LIG d   1      19.168 -17.992   5.854  0.00  0.00     0.210 HD
ENDBRANCH  43  45
ENDBRANCH  40  43
ENDBRANCH  37  40
ENDBRANCH  31  34
ENDBRANCH  25  28
ENDBRANCH  19  22
ENDBRANCH  15  16
ENDBRANCH  14  15
ENDBRANCH  12  14
BRANCH   9  47
ATOM     47  C   LIG d   1      23.957 -18.396  22.428  0.00  0.00     0.161 C 
BRANCH  47  48
ATOM     48  N   LIG d   1      24.767 -17.486  21.647  0.00  0.00    -0.228 N 
ATOM     49  N   LIG d   1      24.474 -16.173  21.578  0.00  0.00    -0.145 NA
ATOM     50  C   LIG d   1      25.460 -15.728  20.793  0.00  0.00     0.221 A 
ATOM     51  N   LIG d   1      26.368 -16.671  20.404  0.00  0.00    -0.201 NA
ATOM     52  C   LIG d   1      25.912 -17.767  20.966  0.00  0.00     0.197 A 
ENDBRANCH  47  48
ENDBRANCH   9  47
ENDBRANCH   3   9
TORSDOF 13
ENDMDL
MODEL 4
REMARK VINA RESULT:      -7.6     32.307     34.128
REMARK  13 active torsions:
REMARK  status: ('A' for Active; 'I' for Inactive)
REMARK    1  A    between atoms: O_4  and  C_21 
REMARK    2  A    between atoms: O_4  and  C_27 
REMARK    3  A    between atoms: O_5  and  C_43 
REMARK    4  A    between atoms: N_7  and  C_19 
REMARK    5  A    between atoms: N_9  and  C_33 
REMARK    6  A    between atoms: N_10  and  C_39 
REMARK    7  A    between atoms: N_12  and  C_40 
REMARK    8  A    between atoms: N_13  and  C_44 
REMARK    9  A    between atoms: C_15  and  C_19 
REMARK   10  A    between atoms: C_15  and  C_20 
REMARK   11  A    between atoms: C_17  and  C_21 
REMARK   12  A    between atoms: C_40  and  C_45 
REMARK   13  A    between atoms: C_40  and  C_43 
ROOT
ATOM      1  F   LIG d   1      12.872   2.452  22.598  0.00  0.00    -0.204 F 
ATOM      2  F   LIG d   1      11.029   6.629  23.713  0.00  0.00    -0.204 F 
ATOM      3  C   LIG d   1      10.566   2.546  23.163  0.00  0.00     0.032 A 
ATOM      4  C   LIG d   1      11.808   3.171  22.981  0.00  0.00     0.141 A 
ATOM      5  C   LIG d   1       9.468   3.365  23.498  0.00  0.00     0.003 A 
ATOM      6  C   LIG d   1      11.976   4.539  23.179  0.00  0.00     0.059 A 
ATOM      7  C   LIG d   1       9.623   4.740  23.677  0.00  0.00     0.030 A 
ATOM      8  C   LIG d   1      10.879   5.311  23.528  0.00  0.00     0.142 A 
ENDROOT
BRANCH   3   9
ATOM      9  C   LIG d   1      10.381   1.044  22.943  0.00  0.00     0.136 C 
ATOM     10  O   LIG d   1       8.999   0.708  23.278  0.00  0.00    -0.353 OA
ATOM     11  C   LIG d   1       8.993   0.162  24.606  0.00  0.00     0.145 C 
ATOM     12  C   LIG d   1      10.208  -0.735  24.618  0.00  0.00     0.063 C 
ATOM     13  C   LIG d   1      11.220   0.147  23.898  0.00  0.00     0.039 C 
BRANCH  12  14
ATOM     14  C   LIG d   1       9.866  -2.026  23.872  0.00  0.00     0.151 C 
BRANCH  14  15
ATOM     15  O   LIG d   1       9.794  -3.144  24.757  0.00  0.00    -0.331 OA
BRANCH  15  16
ATOM     16  C   LIG d   1       8.722  -3.971  24.531  0.00  0.00     0.094 A 
ATOM     17  C   LIG d   1       8.484  -4.673  23.355  0.00  0.00     0.026 A 
ATOM     18  C   LIG d   1       7.343  -5.471  23.215  0.00  0.00     0.019 A 
ATOM     19  C   LIG d   1       6.381  -5.603  24.227  0.00  0.00     0.056 A 
ATOM     20  C   LIG d   1       6.673  -4.923  25.424  0.00  0.00     0.019 A 
ATOM     21  C   LIG d   1       7.817  -4.116  25.574  0.00  0.00     0.026 A 
BRANCH  19  22
ATOM     22  N   LIG d   1       5.242  -6.418  24.067  0.00  0.00    -0.345 N 
ATOM     23  C   LIG d   1       4.673  -7.036  25.296  0.00  0.00     0.119 C 
ATOM     24  C   LIG d   1       3.591  -8.087  24.961  0.00  0.00     0.101 C 
ATOM     25  N   LIG d   1       2.520  -7.497  24.126  0.00  0.00    -0.249 NA
ATOM     26  C   LIG d   1       3.076  -6.959  22.865  0.00  0.00     0.101 C 
ATOM     27  C   LIG d   1       4.181  -5.920  23.144  0.00  0.00     0.119 C 
BRANCH  25  28
ATOM     28  C   LIG d   1       1.406  -8.316  23.878  0.00  0.00     0.037 A 
ATOM     29  C   LIG d   1       0.128  -7.826  23.613  0.00  0.00     0.013 A 
ATOM     30  C   LIG d   1      -0.940  -8.691  23.343  0.00  0.00     0.019 A 
ATOM     31  C   LIG d   1      -0.772 -10.080  23.319  0.00  0.00     0.070 A 
ATOM     32  C   LIG d   1       0.503 -10.575  23.629  0.00  0.00     0.019 A 
ATOM     33  C   LIG d   1       1.568  -9.706  23.907  0.00  0.00     0.013 A 
BRANCH  31  34
ATOM     34  N   LIG d   1      -1.836 -10.941  22.958  0.00  0.00    -0.240 N 
ATOM     35  C   LIG d   1      -1.753 -12.194  22.369  0.00  0.00     0.352 A 
ATOM     36  O   LIG d   1      -0.759 -12.781  21.962  0.00  0.00    -0.244 OA
ATOM     37  N   LIG d   1      -3.074 -12.668  22.313  0.00  0.00    -0.200 N 
ATOM     38  N   LIG d   1      -3.940 -11.704  22.783  0.00  0.00    -0.144 NA
ATOM     39  C   LIG d   1      -3.159 -10.737  23.144  0.00  0.00     0.207 A 
BRANCH  37  40
ATOM     40  C   LIG d   1      -3.582 -13.857  21.625  0.00  0.00     0.137 C 
BRANCH  40  41
ATOM     41  C   LIG d   1      -4.350 -14.773  22.598  0.00  0.00     0.027 C 
ATOM     42  C   LIG d   1      -3.484 -15.284  23.744  0.00  0.00     0.002 C 
ENDBRANCH  40  41
BRANCH  40  43
ATOM     43  C   LIG d   1      -4.425 -13.559  20.351  0.00  0.00     0.133 C 
ATOM     44  C   LIG d   1      -3.655 -12.826  19.257  0.00  0.00     0.034 C 
BRANCH  43  45
ATOM     45  O   LIG d   1      -5.638 -12.873  20.660  0.00  0.00    -0.383 OA
ATOM     46  H   LIG d   1      -6.355 -13.523  20.750  0.00  0.00     0.210 HD
ENDBRANCH  43  45
ENDBRANCH  40  43
ENDBRANCH  37  40
ENDBRANCH  31  34
ENDBRANCH  25  28
ENDBRANCH  19  22
ENDBRANCH  15  16
ENDBRANCH  14  15
ENDBRANCH  12  14
BRANCH   9  47
ATOM     47  C   LIG d   1      10.663   0.654  21.473  0.00  0.00     0.161 C 
BRANCH  47  48
ATOM     48  N   LIG d   1       9.491   0.254  20.723  0.00  0.00    -0.228 N 
ATOM     49  N   LIG d   1       8.654   1.167  20.196  0.00  0.00    -0.145 NA
ATOM     50  C   LIG d   1       7.756   0.380  19.594  0.00  0.00     0.221 A 
ATOM     51  N   LIG d   1       8.004  -0.960  19.681  0.00  0.00    -0.201 NA
ATOM     52  C   LIG d   1       9.110  -1.009  20.388  0.00  0.00     0.197 A 
ENDBRANCH  47  48
ENDBRANCH   9  47
ENDBRANCH   3   9
TORSDOF 13
ENDMDL
MODEL 5
REMARK VINA RESULT:      -7.5     20.251     22.903
REMARK  13 active torsions:
REMARK  status: ('A' for Active; 'I' for Inactive)
REMARK    1  A    between atoms: O_4  and  C_21 
REMARK    2  A    between atoms: O_4  and  C_27 
REMARK    3  A    between atoms: O_5  and  C_43 
REMARK    4  A    between atoms: N_7  and  C_19 
REMARK    5  A    between atoms: N_9  and  C_33 
REMARK    6  A    between atoms: N_10  and  C_39 
REMARK    7  A    between atoms: N_12  and  C_40 
REMARK    8  A    between atoms: N_13  and  C_44 
REMARK    9  A    between atoms: C_15  and  C_19 
REMARK   10  A    between atoms: C_15  and  C_20 
REMARK   11  A    between atoms: C_17  and  C_21 
REMARK   12  A    between atoms: C_40  and  C_45 
REMARK   13  A    between atoms: C_40  and  C_43 
ROOT
ATOM      1  F   LIG d   1       9.611  25.237   1.781  0.00  0.00    -0.204 F 
ATOM      2  F   LIG d   1      12.997  27.575   4.052  0.00  0.00    -0.204 F 
ATOM      3  C   LIG d   1      11.604  24.068   2.336  0.00  0.00     0.032 A 
ATOM      4  C   LIG d   1      10.834  25.240   2.330  0.00  0.00     0.141 A 
ATOM      5  C   LIG d   1      12.853  24.113   2.989  0.00  0.00     0.003 A 
ATOM      6  C   LIG d   1      11.300  26.426   2.889  0.00  0.00     0.059 A 
ATOM      7  C   LIG d   1      13.319  25.292   3.571  0.00  0.00     0.030 A 
ATOM      8  C   LIG d   1      12.543  26.441   3.504  0.00  0.00     0.142 A 
ENDROOT
BRANCH   3   9
ATOM      9  C   LIG d   1      11.091  22.764   1.724  0.00  0.00     0.136 C 
ATOM     10  O   LIG d   1       9.685  22.616   2.094  0.00  0.00    -0.353 OA
ATOM     11  C   LIG d   1       9.620  21.713   3.208  0.00  0.00     0.145 C 
ATOM     12  C   LIG d   1      10.614  20.636   2.842  0.00  0.00     0.063 C 
ATOM     13  C   LIG d   1      11.759  21.480   2.297  0.00  0.00     0.039 C 
BRANCH  12  14
ATOM     14  C   LIG d   1       9.970  19.715   1.803  0.00  0.00     0.151 C 
BRANCH  14  15
ATOM     15  O   LIG d   1      10.696  18.494   1.659  0.00  0.00    -0.331 OA
BRANCH  15  16
ATOM     16  C   LIG d   1       9.950  17.367   1.899  0.00  0.00     0.094 A 
ATOM     17  C   LIG d   1       9.882  16.258   1.065  0.00  0.00     0.026 A 
ATOM     18  C   LIG d   1       9.068  15.166   1.388  0.00  0.00     0.019 A 
ATOM     19  C   LIG d   1       8.276  15.127   2.546  0.00  0.00     0.056 A 
ATOM     20  C   LIG d   1       8.404  16.240   3.397  0.00  0.00     0.019 A 
ATOM     21  C   LIG d   1       9.219  17.344   3.080  0.00  0.00     0.026 A 
BRANCH  19  22
ATOM     22  N   LIG d   1       7.468  14.014   2.856  0.00  0.00    -0.345 N 
ATOM     23  C   LIG d   1       7.445  12.899   1.870  0.00  0.00     0.119 C 
ATOM     24  C   LIG d   1       6.350  11.861   2.204  0.00  0.00     0.101 C 
ATOM     25  N   LIG d   1       6.512  11.343   3.581  0.00  0.00    -0.249 NA
ATOM     26  C   LIG d   1       6.449  12.444   4.566  0.00  0.00     0.101 C 
ATOM     27  C   LIG d   1       7.510  13.522   4.264  0.00  0.00     0.119 C 
BRANCH  25  28
ATOM     28  C   LIG d   1       5.662  10.287   3.949  0.00  0.00     0.037 A 
ATOM     29  C   LIG d   1       5.998   9.315   4.891  0.00  0.00     0.013 A 
ATOM     30  C   LIG d   1       5.098   8.300   5.241  0.00  0.00     0.019 A 
ATOM     31  C   LIG d   1       3.822   8.222   4.669  0.00  0.00     0.070 A 
ATOM     32  C   LIG d   1       3.500   9.173   3.691  0.00  0.00     0.019 A 
ATOM     33  C   LIG d   1       4.408  10.182   3.337  0.00  0.00     0.013 A 
BRANCH  31  34
ATOM     34  N   LIG d   1       2.888   7.246   5.095  0.00  0.00    -0.240 N 
ATOM     35  C   LIG d   1       2.575   6.044   4.477  0.00  0.00     0.352 A 
ATOM     36  O   LIG d   1       2.971   5.613   3.403  0.00  0.00    -0.244 OA
ATOM     37  N   LIG d   1       1.674   5.405   5.345  0.00  0.00    -0.200 N 
ATOM     38  N   LIG d   1       1.391   6.223   6.417  0.00  0.00    -0.144 NA
ATOM     39  C   LIG d   1       2.129   7.267   6.212  0.00  0.00     0.207 A 
BRANCH  37  40
ATOM     40  C   LIG d   1       0.889   4.193   5.101  0.00  0.00     0.137 C 
BRANCH  40  41
ATOM     41  C   LIG d   1       0.540   3.484   6.425  0.00  0.00     0.027 C 
ATOM     42  C   LIG d   1      -0.952   3.222   6.586  0.00  0.00     0.002 C 
ENDBRANCH  40  41
BRANCH  40  43
ATOM     43  C   LIG d   1      -0.382   4.407   4.228  0.00  0.00     0.133 C 
ATOM     44  C   LIG d   1      -0.257   3.862   2.809  0.00  0.00     0.034 C 
BRANCH  43  45
ATOM     45  O   LIG d   1      -0.794   5.773   4.208  0.00  0.00    -0.383 OA
ATOM     46  H   LIG d   1      -1.727   5.819   3.940  0.00  0.00     0.210 HD
ENDBRANCH  43  45
ENDBRANCH  40  43
ENDBRANCH  37  40
ENDBRANCH  31  34
ENDBRANCH  25  28
ENDBRANCH  19  22
ENDBRANCH  15  16
ENDBRANCH  14  15
ENDBRANCH  12  14
BRANCH   9  47
ATOM     47  C   LIG d   1      11.219  22.779   0.183  0.00  0.00     0.161 C 
BRANCH  47  48
ATOM     48  N   LIG d   1       9.976  23.019  -0.519  0.00  0.00    -0.228 N 
ATOM     49  N   LIG d   1       9.702  24.219  -1.066  0.00  0.00    -0.145 NA
ATOM     50  C   LIG d   1       8.503  23.989  -1.610  0.00  0.00     0.221 A 
ATOM     51  N   LIG d   1       8.033  22.714  -1.470  0.00  0.00    -0.201 NA
ATOM     52  C   LIG d   1       8.987  22.123  -0.789  0.00  0.00     0.197 A 
ENDBRANCH  47  48
ENDBRANCH   9  47
ENDBRANCH   3   9
TORSDOF 13
ENDMDL
MODEL 6
REMARK VINA RESULT:      -7.5     26.169     27.841
REMARK  13 active torsions:
REMARK  status: ('A' for Active; 'I' for Inactive)
REMARK    1  A    between atoms: O_4  and  C_21 
REMARK    2  A    between atoms: O_4  and  C_27 
REMARK    3  A    between atoms: O_5  and  C_43 
REMARK    4  A    between atoms: N_7  and  C_19 
REMARK    5  A    between atoms: N_9  and  C_33 
REMARK    6  A    between atoms: N_10  and  C_39 
REMARK    7  A    between atoms: N_12  and  C_40 
REMARK    8  A    between atoms: N_13  and  C_44 
REMARK    9  A    between atoms: C_15  and  C_19 
REMARK   10  A    between atoms: C_15  and  C_20 
REMARK   11  A    between atoms: C_17  and  C_21 
REMARK   12  A    between atoms: C_40  and  C_45 
REMARK   13  A    between atoms: C_40  and  C_43 
ROOT
ATOM      1  F   LIG d   1      22.475 -24.875  15.517  0.00  0.00    -0.204 F 
ATOM      2  F   LIG d   1      22.505 -26.007  20.078  0.00  0.00    -0.204 F 
ATOM      3  C   LIG d   1      22.790 -23.134  17.102  0.00  0.00     0.032 A 
ATOM      4  C   LIG d   1      22.573 -24.484  16.795  0.00  0.00     0.141 A 
ATOM      5  C   LIG d   1      22.953 -22.793  18.461  0.00  0.00     0.003 A 
ATOM      6  C   LIG d   1      22.459 -25.454  17.788  0.00  0.00     0.059 A 
ATOM      7  C   LIG d   1      22.863 -23.762  19.462  0.00  0.00     0.030 A 
ATOM      8  C   LIG d   1      22.604 -25.081  19.116  0.00  0.00     0.142 A 
ENDROOT
BRANCH   3   9
ATOM      9  C   LIG d   1      22.917 -22.070  16.012  0.00  0.00     0.136 C 
ATOM     10  O   LIG d   1      22.505 -20.790  16.582  0.00  0.00    -0.353 OA
ATOM     11  C   LIG d   1      21.149 -20.548  16.176  0.00  0.00     0.145 C 
ATOM     12  C   LIG d   1      21.138 -20.979  14.728  0.00  0.00     0.063 C 
ATOM     13  C   LIG d   1      21.949 -22.266  14.809  0.00  0.00     0.039 C 
BRANCH  12  14
ATOM     14  C   LIG d   1      21.794 -19.880  13.890  0.00  0.00     0.151 C 
BRANCH  14  15
ATOM     15  O   LIG d   1      22.644 -20.424  12.880  0.00  0.00    -0.331 OA
BRANCH  15  16
ATOM     16  C   LIG d   1      22.233 -20.157  11.597  0.00  0.00     0.094 A 
ATOM     17  C   LIG d   1      21.620 -18.982  11.179  0.00  0.00     0.026 A 
ATOM     18  C   LIG d   1      21.214 -18.820   9.850  0.00  0.00     0.019 A 
ATOM     19  C   LIG d   1      21.384 -19.816   8.877  0.00  0.00     0.056 A 
ATOM     20  C   LIG d   1      22.053 -20.974   9.316  0.00  0.00     0.019 A 
ATOM     21  C   LIG d   1      22.464 -21.148  10.651  0.00  0.00     0.026 A 
BRANCH  19  22
ATOM     22  N   LIG d   1      20.973 -19.629   7.542  0.00  0.00    -0.345 N 
ATOM     23  C   LIG d   1      21.811 -18.738   6.694  0.00  0.00     0.119 C 
ATOM     24  C   LIG d   1      21.129 -18.425   5.343  0.00  0.00     0.101 C 
ATOM     25  N   LIG d   1      20.789 -19.670   4.619  0.00  0.00    -0.249 NA
ATOM     26  C   LIG d   1      19.886 -20.517   5.430  0.00  0.00     0.101 C 
ATOM     27  C   LIG d   1      20.511 -20.840   6.802  0.00  0.00     0.119 C 
BRANCH  25  28
ATOM     28  C   LIG d   1      20.296 -19.513   3.313  0.00  0.00     0.037 A 
ATOM     29  C   LIG d   1      19.928 -20.577   2.491  0.00  0.00     0.013 A 
ATOM     30  C   LIG d   1      19.414 -20.359   1.207  0.00  0.00     0.019 A 
ATOM     31  C   LIG d   1      19.239 -19.068   0.695  0.00  0.00     0.070 A 
ATOM     32  C   LIG d   1      19.650 -17.999   1.505  0.00  0.00     0.019 A 
ATOM     33  C   LIG d   1      20.173 -18.222   2.788  0.00  0.00     0.013 A 
BRANCH  31  34
ATOM     34  N   LIG d   1      18.637 -18.855  -0.568  0.00  0.00    -0.240 N 
ATOM     35  C   LIG d   1      19.268 -18.685  -1.792  0.00  0.00     0.352 A 
ATOM     36  O   LIG d   1      20.465 -18.598  -2.027  0.00  0.00    -0.244 OA
ATOM     37  N   LIG d   1      18.231 -18.613  -2.737  0.00  0.00    -0.200 N 
ATOM     38  N   LIG d   1      17.009 -18.663  -2.102  0.00  0.00    -0.144 NA
ATOM     39  C   LIG d   1      17.317 -18.808  -0.852  0.00  0.00     0.207 A 
BRANCH  37  40
ATOM     40  C   LIG d   1      18.322 -18.258  -4.155  0.00  0.00     0.137 C 
BRANCH  40  41
ATOM     41  C   LIG d   1      17.491 -19.226  -5.022  0.00  0.00     0.027 C 
ATOM     42  C   LIG d   1      18.077 -19.430  -6.414  0.00  0.00     0.002 C 
ENDBRANCH  40  41
BRANCH  40  43
ATOM     43  C   LIG d   1      17.973 -16.776  -4.477  0.00  0.00     0.133 C 
ATOM     44  C   LIG d   1      19.193 -15.874  -4.638  0.00  0.00     0.034 C 
BRANCH  43  45
ATOM     45  O   LIG d   1      17.059 -16.223  -3.531  0.00  0.00    -0.383 OA
ATOM     46  H   LIG d   1      16.215 -16.701  -3.588  0.00  0.00     0.210 HD
ENDBRANCH  43  45
ENDBRANCH  40  43
ENDBRANCH  37  40
ENDBRANCH  31  34
ENDBRANCH  25  28
ENDBRANCH  19  22
ENDBRANCH  15  16
ENDBRANCH  14  15
ENDBRANCH  12  14
BRANCH   9  47
ATOM     47  C   LIG d   1      24.373 -21.961  15.501  0.00  0.00     0.161 C 
BRANCH  47  48
ATOM     48  N   LIG d   1      25.048 -20.736  15.875  0.00  0.00    -0.228 N 
ATOM     49  N   LIG d   1      25.632 -20.599  17.081  0.00  0.00    -0.145 NA
ATOM     50  C   LIG d   1      26.133 -19.364  16.989  0.00  0.00     0.221 A 
ATOM     51  N   LIG d   1      25.932 -18.740  15.790  0.00  0.00    -0.201 NA
ATOM     52  C   LIG d   1      25.257 -19.633  15.104  0.00  0.00     0.197 A 
ENDBRANCH  47  48
ENDBRANCH   9  47
ENDBRANCH   3   9
TORSDOF 13
ENDMDL
MODEL 7
REMARK VINA RESULT:      -7.5      7.390     15.052
REMARK  13 active torsions:
REMARK  status: ('A' for Active; 'I' for Inactive)
REMARK    1  A    between atoms: O_4  and  C_21 
REMARK    2  A    between atoms: O_4  and  C_27 
REMARK    3  A    between atoms: O_5  and  C_43 
REMARK    4  A    between atoms: N_7  and  C_19 
REMARK    5  A    between atoms: N_9  and  C_33 
REMARK    6  A    between atoms: N_10  and  C_39 
REMARK    7  A    between atoms: N_12  and  C_40 
REMARK    8  A    between atoms: N_13  and  C_44 
REMARK    9  A    between atoms: C_15  and  C_19 
REMARK   10  A    between atoms: C_15  and  C_20 
REMARK   11  A    between atoms: C_17  and  C_21 
REMARK   12  A    between atoms: C_40  and  C_45 
REMARK   13  A    between atoms: C_40  and  C_43 
ROOT
ATOM      1  F   LIG d   1      13.184  -0.576 -12.303  0.00  0.00    -0.204 F 
ATOM      2  F   LIG d   1      14.589  -1.045 -16.763  0.00  0.00    -0.204 F 
ATOM      3  C   LIG d   1      13.741  -2.750 -13.081  0.00  0.00     0.032 A 
ATOM      4  C   LIG d   1      13.590  -1.374 -13.301  0.00  0.00     0.141 A 
ATOM      5  C   LIG d   1      14.237  -3.529 -14.147  0.00  0.00     0.003 A 
ATOM      6  C   LIG d   1      13.856  -0.795 -14.538  0.00  0.00     0.059 A 
ATOM      7  C   LIG d   1      14.528  -2.954 -15.385  0.00  0.00     0.030 A 
ATOM      8  C   LIG d   1      14.322  -1.594 -15.572  0.00  0.00     0.142 A 
ENDROOT
BRANCH   3   9
ATOM      9  C   LIG d   1      13.451  -3.386 -11.721  0.00  0.00     0.136 C 
ATOM     10  O   LIG d   1      13.470  -4.837 -11.889  0.00  0.00    -0.353 OA
ATOM     11  C   LIG d   1      12.109  -5.281 -11.999  0.00  0.00     0.145 C 
ATOM     12  C   LIG d   1      11.392  -4.466 -10.949  0.00  0.00     0.063 C 
ATOM     13  C   LIG d   1      12.024  -3.098 -11.170  0.00  0.00     0.039 C 
BRANCH  12  14
ATOM     14  C   LIG d   1      11.688  -5.074  -9.576  0.00  0.00     0.151 C 
BRANCH  14  15
ATOM     15  O   LIG d   1      11.651  -4.090  -8.543  0.00  0.00    -0.331 OA
BRANCH  15  16
ATOM     16  C   LIG d   1      12.724  -4.134  -7.688  0.00  0.00     0.094 A 
ATOM     17  C   LIG d   1      12.958  -3.241  -6.649  0.00  0.00     0.026 A 
ATOM     18  C   LIG d   1      14.100  -3.357  -5.849  0.00  0.00     0.019 A 
ATOM     19  C   LIG d   1      15.067  -4.354  -6.045  0.00  0.00     0.056 A 
ATOM     20  C   LIG d   1      14.778  -5.274  -7.070  0.00  0.00     0.019 A 
ATOM     21  C   LIG d   1      13.633  -5.165  -7.882  0.00  0.00     0.026 A 
BRANCH  19  22
ATOM     22  N   LIG d   1      16.207  -4.456  -5.222  0.00  0.00    -0.345 N 
ATOM     23  C   LIG d   1      16.831  -5.802  -5.094  0.00  0.00     0.119 C 
ATOM     24  C   LIG d   1      17.910  -5.829  -3.988  0.00  0.00     0.101 C 
ATOM     25  N   LIG d   1      18.940  -4.793  -4.226  0.00  0.00    -0.249 NA
ATOM     26  C   LIG d   1      18.329  -3.447  -4.269  0.00  0.00     0.101 C 
ATOM     27  C   LIG d   1      17.225  -3.372  -5.344  0.00  0.00     0.119 C 
BRANCH  25  28
ATOM     28  C   LIG d   1      20.051  -4.816  -3.367  0.00  0.00     0.037 A 
ATOM     29  C   LIG d   1      21.040  -5.798  -3.407  0.00  0.00     0.013 A 
ATOM     30  C   LIG d   1      22.144  -5.754  -2.545  0.00  0.00     0.019 A 
ATOM     31  C   LIG d   1      22.307  -4.722  -1.614  0.00  0.00     0.070 A 
ATOM     32  C   LIG d   1      21.291  -3.758  -1.544  0.00  0.00     0.019 A 
ATOM     33  C   LIG d   1      20.183  -3.810  -2.404  0.00  0.00     0.013 A 
BRANCH  31  34
ATOM     34  N   LIG d   1      23.469  -4.638  -0.810  0.00  0.00    -0.240 N 
ATOM     35  C   LIG d   1      24.385  -3.598  -0.748  0.00  0.00     0.352 A 
ATOM     36  O   LIG d   1      24.433  -2.582  -1.427  0.00  0.00    -0.244 OA
ATOM     37  N   LIG d   1      25.286  -3.958   0.268  0.00  0.00    -0.200 N 
ATOM     38  N   LIG d   1      24.972  -5.207   0.756  0.00  0.00    -0.144 NA
ATOM     39  C   LIG d   1      23.910  -5.539   0.094  0.00  0.00     0.207 A 
BRANCH  37  40
ATOM     40  C   LIG d   1      26.550  -3.311   0.628  0.00  0.00     0.137 C 
BRANCH  40  41
ATOM     41  C   LIG d   1      26.714  -3.229   2.158  0.00  0.00     0.027 C 
ATOM     42  C   LIG d   1      25.817  -2.177   2.798  0.00  0.00     0.002 C 
ENDBRANCH  40  41
BRANCH  40  43
ATOM     43  C   LIG d   1      27.812  -3.934  -0.039  0.00  0.00     0.133 C 
ATOM     44  C   LIG d   1      28.298  -3.178  -1.271  0.00  0.00     0.034 C 
BRANCH  43  45
ATOM     45  O   LIG d   1      27.631  -5.319  -0.336  0.00  0.00    -0.383 OA
ATOM     46  H   LIG d   1      28.186  -5.846   0.262  0.00  0.00     0.210 HD
ENDBRANCH  43  45
ENDBRANCH  40  43
ENDBRANCH  37  40
ENDBRANCH  31  34
ENDBRANCH  25  28
ENDBRANCH  19  22
ENDBRANCH  15  16
ENDBRANCH  14  15
ENDBRANCH  12  14
BRANCH   9  47
ATOM     47  C   LIG d   1      14.511  -2.976 -10.672  0.00  0.00     0.161 C 
BRANCH  47  48
ATOM     48  N   LIG d   1      15.822  -3.551 -10.888  0.00  0.00    -0.228 N 
ATOM     49  N   LIG d   1      16.109  -4.805 -10.488  0.00  0.00    -0.145 NA
ATOM     50  C   LIG d   1      17.377  -4.923 -10.894  0.00  0.00     0.221 A 
ATOM     51  N   LIG d   1      17.882  -3.840 -11.554  0.00  0.00    -0.201 NA
ATOM     52  C   LIG d   1      16.876  -2.996 -11.546  0.00  0.00     0.197 A 
ENDBRANCH  47  48
ENDBRANCH   9  47
ENDBRANCH   3   9
TORSDOF 13
ENDMDL
MODEL 8
REMARK VINA RESULT:      -7.4      1.496      2.258
REMARK  13 active torsions:
REMARK  status: ('A' for Active; 'I' for Inactive)
REMARK    1  A    between atoms: O_4  and  C_21 
REMARK    2  A    between atoms: O_4  and  C_27 
REMARK    3  A    between atoms: O_5  and  C_43 
REMARK    4  A    between atoms: N_7  and  C_19 
REMARK    5  A    between atoms: N_9  and  C_33 
REMARK    6  A    between atoms: N_10  and  C_39 
REMARK    7  A    between atoms: N_12  and  C_40 
REMARK    8  A    between atoms: N_13  and  C_44 
REMARK    9  A    between atoms: C_15  and  C_19 
REMARK   10  A    between atoms: C_15  and  C_20 
REMARK   11  A    between atoms: C_17  and  C_21 
REMARK   12  A    between atoms: C_40  and  C_45 
REMARK   13  A    between atoms: C_40  and  C_43 
ROOT
ATOM      1  F   LIG d   1      17.833   5.644  -4.023  0.00  0.00    -0.204 F 
ATOM      2  F   LIG d   1      19.345   9.769  -2.355  0.00  0.00    -0.204 F 
ATOM      3  C   LIG d   1      20.111   6.227  -4.368  0.00  0.00     0.032 A 
ATOM      4  C   LIG d   1      18.833   6.523  -3.872  0.00  0.00     0.141 A 
ATOM      5  C   LIG d   1      21.139   7.159  -4.118  0.00  0.00     0.003 A 
ATOM      6  C   LIG d   1      18.563   7.717  -3.209  0.00  0.00     0.059 A 
ATOM      7  C   LIG d   1      20.882   8.349  -3.435  0.00  0.00     0.030 A 
ATOM      8  C   LIG d   1      19.593   8.622  -2.999  0.00  0.00     0.142 A 
ENDROOT
BRANCH   3   9
ATOM      9  C   LIG d   1      20.408   4.914  -5.093  0.00  0.00     0.136 C 
ATOM     10  O   LIG d   1      20.284   5.155  -6.529  0.00  0.00    -0.353 OA
ATOM     11  C   LIG d   1      18.990   4.687  -6.940  0.00  0.00     0.145 C 
ATOM     12  C   LIG d   1      18.838   3.385  -6.189  0.00  0.00     0.063 C 
ATOM     13  C   LIG d   1      19.376   3.782  -4.820  0.00  0.00     0.039 C 
BRANCH  12  14
ATOM     14  C   LIG d   1      19.670   2.315  -6.899  0.00  0.00     0.151 C 
BRANCH  14  15
ATOM     15  O   LIG d   1      19.473   1.024  -6.323  0.00  0.00    -0.331 OA
BRANCH  15  16
ATOM     16  C   LIG d   1      18.736   0.168  -7.103  0.00  0.00     0.094 A 
ATOM     17  C   LIG d   1      19.210  -0.511  -8.218  0.00  0.00     0.026 A 
ATOM     18  C   LIG d   1      18.367  -1.343  -8.964  0.00  0.00     0.019 A 
ATOM     19  C   LIG d   1      17.013  -1.531  -8.648  0.00  0.00     0.056 A 
ATOM     20  C   LIG d   1      16.573  -0.871  -7.485  0.00  0.00     0.019 A 
ATOM     21  C   LIG d   1      17.412  -0.031  -6.729  0.00  0.00     0.026 A 
BRANCH  19  22
ATOM     22  N   LIG d   1      16.183  -2.378  -9.409  0.00  0.00    -0.345 N 
ATOM     23  C   LIG d   1      16.610  -2.667 -10.806  0.00  0.00     0.119 C 
ATOM     24  C   LIG d   1      15.507  -3.400 -11.602  0.00  0.00     0.101 C 
ATOM     25  N   LIG d   1      15.091  -4.642 -10.912  0.00  0.00    -0.249 NA
ATOM     26  C   LIG d   1      14.587  -4.343  -9.554  0.00  0.00     0.101 C 
ATOM     27  C   LIG d   1      15.644  -3.588  -8.722  0.00  0.00     0.119 C 
BRANCH  25  28
ATOM     28  C   LIG d   1      14.197  -5.469 -11.612  0.00  0.00     0.037 A 
ATOM     29  C   LIG d   1      14.561  -6.250 -12.708  0.00  0.00     0.013 A 
ATOM     30  C   LIG d   1      13.633  -7.080 -13.349  0.00  0.00     0.019 A 
ATOM     31  C   LIG d   1      12.305  -7.169 -12.916  0.00  0.00     0.070 A 
ATOM     32  C   LIG d   1      11.928  -6.351 -11.841  0.00  0.00     0.019 A 
ATOM     33  C   LIG d   1      12.859  -5.514 -11.207  0.00  0.00     0.013 A 
BRANCH  31  34
ATOM     34  N   LIG d   1      11.398  -8.076 -13.514  0.00  0.00    -0.240 N 
ATOM     35  C   LIG d   1      10.751  -7.949 -14.735  0.00  0.00     0.352 A 
ATOM     36  O   LIG d   1      10.759  -7.001 -15.508  0.00  0.00    -0.244 OA
ATOM     37  N   LIG d   1      10.050  -9.154 -14.911  0.00  0.00    -0.200 N 
ATOM     38  N   LIG d   1      10.204  -9.955 -13.800  0.00  0.00    -0.144 NA
ATOM     39  C   LIG d   1      10.998  -9.275 -13.037  0.00  0.00     0.207 A 
BRANCH  37  40
ATOM     40  C   LIG d   1       9.060  -9.484 -15.938  0.00  0.00     0.137 C 
BRANCH  40  41
ATOM     41  C   LIG d   1       7.946  -8.420 -15.994  0.00  0.00     0.027 C 
ATOM     42  C   LIG d   1       6.711  -8.889 -16.754  0.00  0.00     0.002 C 
ENDBRANCH  40  41
BRANCH  40  43
ATOM     43  C   LIG d   1       9.655  -9.748 -17.353  0.00  0.00     0.133 C 
ATOM     44  C   LIG d   1      10.622 -10.927 -17.406  0.00  0.00     0.034 C 
BRANCH  43  45
ATOM     45  O   LIG d   1      10.255  -8.578 -17.908  0.00  0.00    -0.383 OA
ATOM     46  H   LIG d   1      11.175  -8.519 -17.603  0.00  0.00     0.210 HD
ENDBRANCH  43  45
ENDBRANCH  40  43
ENDBRANCH  37  40
ENDBRANCH  31  34
ENDBRANCH  25  28
ENDBRANCH  19  22
ENDBRANCH  15  16
ENDBRANCH  14  15
ENDBRANCH  12  14
BRANCH   9  47
ATOM     47  C   LIG d   1      21.836   4.410  -4.779  0.00  0.00     0.161 C 
BRANCH  47  48
ATOM     48  N   LIG d   1      22.755   4.476  -5.895  0.00  0.00    -0.228 N 
ATOM     49  N   LIG d   1      23.520   5.564  -6.108  0.00  0.00    -0.145 NA
ATOM     50  C   LIG d   1      24.203   5.193  -7.195  0.00  0.00     0.221 A 
ATOM     51  N   LIG d   1      23.941   3.931  -7.647  0.00  0.00    -0.201 NA
ATOM     52  C   LIG d   1      23.033   3.499  -6.802  0.00  0.00     0.197 A 
ENDBRANCH  47  48
ENDBRANCH   9  47
ENDBRANCH   3   9
TORSDOF 13
ENDMDL
MODEL 9
REMARK VINA RESULT:      -7.3     23.152     29.070
REMARK  13 active torsions:
REMARK  status: ('A' for Active; 'I' for Inactive)
REMARK    1  A    between atoms: O_4  and  C_21 
REMARK    2  A    between atoms: O_4  and  C_27 
REMARK    3  A    between atoms: O_5  and  C_43 
REMARK    4  A    between atoms: N_7  and  C_19 
REMARK    5  A    between atoms: N_9  and  C_33 
REMARK    6  A    between atoms: N_10  and  C_39 
REMARK    7  A    between atoms: N_12  and  C_40 
REMARK    8  A    between atoms: N_13  and  C_44 
REMARK    9  A    between atoms: C_15  and  C_19 
REMARK   10  A    between atoms: C_15  and  C_20 
REMARK   11  A    between atoms: C_17  and  C_21 
REMARK   12  A    between atoms: C_40  and  C_45 
REMARK   13  A    between atoms: C_40  and  C_43 
ROOT
ATOM      1  F   LIG d   1      27.221  -1.911  24.638  0.00  0.00    -0.204 F 
ATOM      2  F   LIG d   1      26.917  -3.499  29.050  0.00  0.00    -0.204 F 
ATOM      3  C   LIG d   1      25.586  -3.564  25.125  0.00  0.00     0.032 A 
ATOM      4  C   LIG d   1      26.638  -2.728  25.525  0.00  0.00     0.141 A 
ATOM      5  C   LIG d   1      24.966  -4.352  26.117  0.00  0.00     0.003 A 
ATOM      6  C   LIG d   1      27.102  -2.712  26.837  0.00  0.00     0.059 A 
ATOM      7  C   LIG d   1      25.410  -4.325  27.439  0.00  0.00     0.030 A 
ATOM      8  C   LIG d   1      26.483  -3.514  27.784  0.00  0.00     0.142 A 
ENDROOT
BRANCH   3   9
ATOM      9  C   LIG d   1      25.074  -3.581  23.684  0.00  0.00     0.136 C 
ATOM     10  O   LIG d   1      24.784  -4.968  23.326  0.00  0.00    -0.353 OA
ATOM     11  C   LIG d   1      25.898  -5.465  22.569  0.00  0.00     0.145 C 
ATOM     12  C   LIG d   1      26.242  -4.311  21.657  0.00  0.00     0.063 C 
ATOM     13  C   LIG d   1      26.125  -3.140  22.624  0.00  0.00     0.039 C 
BRANCH  12  14
ATOM     14  C   LIG d   1      25.226  -4.277  20.513  0.00  0.00     0.151 C 
BRANCH  14  15
ATOM     15  O   LIG d   1      24.547  -3.023  20.447  0.00  0.00    -0.331 OA
BRANCH  15  16
ATOM     16  C   LIG d   1      24.653  -2.390  19.233  0.00  0.00     0.094 A 
ATOM     17  C   LIG d   1      23.992  -1.222  18.877  0.00  0.00     0.026 A 
ATOM     18  C   LIG d   1      24.148  -0.671  17.600  0.00  0.00     0.019 A 
ATOM     19  C   LIG d   1      24.957  -1.256  16.614  0.00  0.00     0.056 A 
ATOM     20  C   LIG d   1      25.655  -2.409  17.020  0.00  0.00     0.019 A 
ATOM     21  C   LIG d   1      25.503  -2.973  18.301  0.00  0.00     0.026 A 
BRANCH  19  22
ATOM     22  N   LIG d   1      25.106  -0.680  15.337  0.00  0.00    -0.345 N 
ATOM     23  C   LIG d   1      25.789   0.641  15.265  0.00  0.00     0.119 C 
ATOM     24  C   LIG d   1      25.673   1.270  13.858  0.00  0.00     0.101 C 
ATOM     25  N   LIG d   1      26.196   0.351  12.822  0.00  0.00    -0.249 NA
ATOM     26  C   LIG d   1      25.458  -0.930  12.838  0.00  0.00     0.101 C 
ATOM     27  C   LIG d   1      25.522  -1.591  14.231  0.00  0.00     0.119 C 
BRANCH  25  28
ATOM     28  C   LIG d   1      26.278   0.870  11.519  0.00  0.00     0.037 A 
ATOM     29  C   LIG d   1      25.605   2.017  11.098  0.00  0.00     0.013 A 
ATOM     30  C   LIG d   1      25.748   2.506   9.794  0.00  0.00     0.019 A 
ATOM     31  C   LIG d   1      26.576   1.873   8.859  0.00  0.00     0.070 A 
ATOM     32  C   LIG d   1      27.219   0.696   9.269  0.00  0.00     0.019 A 
ATOM     33  C   LIG d   1      27.066   0.205  10.574  0.00  0.00     0.013 A 
BRANCH  31  34
ATOM     34  N   LIG d   1      26.783   2.425   7.572  0.00  0.00    -0.240 N 
ATOM     35  C   LIG d   1      26.075   2.156   6.409  0.00  0.00     0.352 A 
ATOM     36  O   LIG d   1      25.187   1.333   6.229  0.00  0.00    -0.244 OA
ATOM     37  N   LIG d   1      26.603   3.029   5.443  0.00  0.00    -0.200 N 
ATOM     38  N   LIG d   1      27.647   3.750   5.980  0.00  0.00    -0.144 NA
ATOM     39  C   LIG d   1      27.693   3.356   7.213  0.00  0.00     0.207 A 
BRANCH  37  40
ATOM     40  C   LIG d   1      26.348   3.044   4.001  0.00  0.00     0.137 C 
BRANCH  40  41
ATOM     41  C   LIG d   1      26.589   4.448   3.411  0.00  0.00     0.027 C 
ATOM     42  C   LIG d   1      25.402   5.384   3.598  0.00  0.00     0.002 C 
ENDBRANCH  40  41
BRANCH  40  43
ATOM     43  C   LIG d   1      27.116   1.956   3.194  0.00  0.00     0.133 C 
ATOM     44  C   LIG d   1      27.822   2.492   1.952  0.00  0.00     0.034 C 
BRANCH  43  45
ATOM     45  O   LIG d   1      26.282   0.847   2.861  0.00  0.00    -0.383 OA
ATOM     46  H   LIG d   1      26.802   0.200   2.358  0.00  0.00     0.210 HD
ENDBRANCH  43  45
ENDBRANCH  40  43
ENDBRANCH  37  40
ENDBRANCH  31  34
ENDBRANCH  25  28
ENDBRANCH  19  22
ENDBRANCH  15  16
ENDBRANCH  14  15
ENDBRANCH  12  14
BRANCH   9  47
ATOM     47  C   LIG d   1      23.790  -2.732  23.535  0.00  0.00     0.161 C 
BRANCH  47  48
ATOM     48  N   LIG d   1      23.987  -1.310  23.724  0.00  0.00    -0.228 N 
ATOM     49  N   LIG d   1      23.805  -0.734  24.928  0.00  0.00    -0.145 NA
ATOM     50  C   LIG d   1      24.105   0.539  24.655  0.00  0.00     0.221 A 
ATOM     51  N   LIG d   1      24.499   0.784  23.370  0.00  0.00    -0.201 NA
ATOM     52  C   LIG d   1      24.426  -0.402  22.810  0.00  0.00     0.197 A 
ENDBRANCH  47  48
ENDBRANCH   9  47
ENDBRANCH   3   9
TORSDOF 13
ENDMDL
