MODEL 1
REMARK VINA RESULT:      -7.5      0.000      0.000
REMARK  10 active torsions:
REMARK  status: ('A' for Active; 'I' for Inactive)
REMARK       I    between atoms: N_6  and  C_20 
REMARK    1  A    between atoms: N_6  and  C_21 
REMARK    2  A    between atoms: N_6  and  C_24 
REMARK    3  A    between atoms: N_7  and  C_14 
REMARK    4  A    between atoms: N_7  and  C_22 
REMARK    5  A    between atoms: N_9  and  C_35 
REMARK    6  A    between atoms: C_12  and  C_14 
REMARK    7  A    between atoms: C_15  and  C_20 
REMARK    8  A    between atoms: C_21  and  C_23 
REMARK    9  A    between atoms: C_23  and  C_31 
REMARK   10  A    between atoms: C_30  and  C_35 
ROOT
ATOM      1  N   LIG d   1      15.287  -3.240  -8.995  0.00  0.00    -0.337 N 
ATOM      2  N   LIG d   1      14.094  -4.305  -7.458  0.00  0.00    -0.232 NA
ATOM      3  C   LIG d   1      15.672  -2.699  -7.790  0.00  0.00     0.064 A 
ATOM      4  C   LIG d   1      14.294  -4.165  -8.755  0.00  0.00     0.120 A 
ATOM      5  C   LIG d   1      14.938  -3.412  -6.845  0.00  0.00     0.086 A 
ATOM      6  C   LIG d   1      16.021  -2.144  -5.097  0.00  0.00     0.035 A 
ATOM      7  C   LIG d   1      15.131  -3.163  -5.478  0.00  0.00     0.051 A 
ATOM      8  C   LIG d   1      16.585  -1.698  -7.438  0.00  0.00     0.033 A 
ATOM      9  C   LIG d   1      16.739  -1.434  -6.073  0.00  0.00     0.019 A 
ATOM     10  C   LIG d   1      15.849  -2.924 -10.285  0.00  0.00     0.158 C 
ENDROOT
BRANCH   4  11
ATOM     11  C   LIG d   1      13.566  -4.926  -9.826  0.00  0.00     0.171 C 
BRANCH  11  12
ATOM     12  N   LIG d   1      12.375  -4.227 -10.305  0.00  0.00    -0.286 NA
ATOM     13  H   LIG d   1      12.163  -3.453  -9.671  0.00  0.00     0.128 HD
BRANCH  12  14
ATOM     14  C   LIG d   1      12.320  -3.822 -11.645  0.00  0.00     0.008 A 
ATOM     15  C   LIG d   1      12.171  -2.485 -12.035  0.00  0.00     0.024 A 
ATOM     16  C   LIG d   1      12.205  -2.113 -13.386  0.00  0.00     0.017 A 
ATOM     17  C   LIG d   1      12.417  -3.076 -14.378  0.00  0.00     0.009 A 
ATOM     18  C   LIG d   1      12.622  -4.403 -13.999  0.00  0.00     0.017 A 
ATOM     19  C   LIG d   1      12.584  -4.765 -12.647  0.00  0.00     0.024 A 
BRANCH  17  20
ATOM     20  C   LIG d   1      12.425  -2.698 -15.812  0.00  0.00     0.123 C 
ATOM     21  N   LIG d   1      13.530  -2.863 -16.510  0.00  0.00    -0.284 NA
ATOM     22  H   LIG d   1      13.470  -2.583 -17.496  0.00  0.00     0.188 HD
BRANCH  20  23
ATOM     23  N   LIG d   1      11.396  -2.236 -16.407  0.00  0.00    -0.384 N 
ATOM     24  H   LIG d   1      11.054  -1.332 -16.101  0.00  0.00     0.157 HD
ATOM     25  H   LIG d   1      10.964  -2.716 -17.185  0.00  0.00     0.157 HD
ENDBRANCH  20  23
ENDBRANCH  17  20
ENDBRANCH  12  14
ENDBRANCH  11  12
ENDBRANCH   4  11
BRANCH   6  26
ATOM     26  C   LIG d   1      16.330  -1.862  -3.663  0.00  0.00     0.259 C 
ATOM     27  O   LIG d   1      15.548  -1.107  -3.075  0.00  0.00    -0.267 OA
ATOM     28  N   LIG d   1      17.506  -2.351  -3.076  0.00  0.00    -0.298 N 
BRANCH  28  29
ATOM     29  C   LIG d   1      17.974  -1.673  -1.855  0.00  0.00     0.144 C 
BRANCH  29  30
ATOM     30  C   LIG d   1      19.305  -0.953  -2.040  0.00  0.00     0.133 C 
BRANCH  30  31
ATOM     31  C   LIG d   1      20.393  -1.423  -1.088  0.00  0.00     0.174 C 
ATOM     32  O   LIG d   1      20.372  -2.656  -0.819  0.00  0.00    -0.648 OA
ATOM     33  O   LIG d   1      21.207  -0.539  -0.698  0.00  0.00    -0.648 OA
ENDBRANCH  30  31
ENDBRANCH  29  30
ENDBRANCH  28  29
BRANCH  28  34
ATOM     34  C   LIG d   1      18.038  -3.635  -3.398  0.00  0.00     0.132 A 
ATOM     35  N   LIG d   1      19.064  -3.700  -4.284  0.00  0.00    -0.243 NA
ATOM     36  C   LIG d   1      19.563  -4.915  -4.601  0.00  0.00     0.119 A 
ATOM     37  C   LIG d   1      19.089  -6.105  -4.084  0.00  0.00     0.019 A 
ATOM     38  C   LIG d   1      18.042  -6.039  -3.180  0.00  0.00     0.005 A 
ATOM     39  C   LIG d   1      17.512  -4.796  -2.835  0.00  0.00     0.051 A 
ENDBRANCH  28  34
ENDBRANCH   6  26
TORSDOF 10
ENDMDL
MODEL 2
REMARK VINA RESULT:      -7.4     22.788     25.552
REMARK  10 active torsions:
REMARK  status: ('A' for Active; 'I' for Inactive)
REMARK       I    between atoms: N_6  and  C_20 
REMARK    1  A    between atoms: N_6  and  C_21 
REMARK    2  A    between atoms: N_6  and  C_24 
REMARK    3  A    between atoms: N_7  and  C_14 
REMARK    4  A    between atoms: N_7  and  C_22 
REMARK    5  A    between atoms: N_9  and  C_35 
REMARK    6  A    between atoms: C_12  and  C_14 
REMARK    7  A    between atoms: C_15  and  C_20 
REMARK    8  A    between atoms: C_21  and  C_23 
REMARK    9  A    between atoms: C_23  and  C_31 
REMARK   10  A    between atoms: C_30  and  C_35 
ROOT
ATOM      1  N   LIG d   1       8.960  16.221   2.880  0.00  0.00    -0.337 N 
ATOM      2  N   LIG d   1       7.246  17.477   3.515  0.00  0.00    -0.232 NA
ATOM      3  C   LIG d   1       8.838  17.192   1.913  0.00  0.00     0.064 A 
ATOM      4  C   LIG d   1       7.947  16.395   3.798  0.00  0.00     0.120 A 
ATOM      5  C   LIG d   1       7.783  17.986   2.358  0.00  0.00     0.086 A 
ATOM      6  C   LIG d   1       8.089  19.414   0.434  0.00  0.00     0.035 A 
ATOM      7  C   LIG d   1       7.417  19.131   1.635  0.00  0.00     0.051 A 
ATOM      8  C   LIG d   1       9.542  17.466   0.735  0.00  0.00     0.033 A 
ATOM      9  C   LIG d   1       9.142  18.590   0.005  0.00  0.00     0.019 A 
ATOM     10  C   LIG d   1       9.992  15.216   2.946  0.00  0.00     0.158 C 
ENDROOT
BRANCH   4  11
ATOM     11  C   LIG d   1       7.700  15.490   4.970  0.00  0.00     0.171 C 
BRANCH  11  12
ATOM     12  N   LIG d   1       6.417  14.794   4.888  0.00  0.00    -0.286 NA
ATOM     13  H   LIG d   1       5.702  15.450   4.564  0.00  0.00     0.128 HD
BRANCH  12  14
ATOM     14  C   LIG d   1       6.349  13.578   4.198  0.00  0.00     0.008 A 
ATOM     15  C   LIG d   1       6.731  12.354   4.762  0.00  0.00     0.024 A 
ATOM     16  C   LIG d   1       6.569  11.149   4.066  0.00  0.00     0.017 A 
ATOM     17  C   LIG d   1       5.991  11.142   2.792  0.00  0.00     0.009 A 
ATOM     18  C   LIG d   1       5.556  12.348   2.241  0.00  0.00     0.017 A 
ATOM     19  C   LIG d   1       5.725  13.547   2.943  0.00  0.00     0.024 A 
BRANCH  17  20
ATOM     20  C   LIG d   1       5.841   9.876   2.034  0.00  0.00     0.123 C 
ATOM     21  N   LIG d   1       6.011   9.889   0.728  0.00  0.00    -0.284 NA
ATOM     22  H   LIG d   1       5.893   8.982   0.262  0.00  0.00     0.188 HD
BRANCH  20  23
ATOM     23  N   LIG d   1       5.572   8.765   2.599  0.00  0.00    -0.384 N 
ATOM     24  H   LIG d   1       4.774   8.249   2.245  0.00  0.00     0.157 HD
ATOM     25  H   LIG d   1       6.153   8.380   3.332  0.00  0.00     0.157 HD
ENDBRANCH  20  23
ENDBRANCH  17  20
ENDBRANCH  12  14
ENDBRANCH  11  12
ENDBRANCH   4  11
BRANCH   6  26
ATOM     26  C   LIG d   1       7.804  20.647  -0.359  0.00  0.00     0.259 C 
ATOM     27  O   LIG d   1       6.757  20.642  -1.017  0.00  0.00    -0.267 OA
ATOM     28  N   LIG d   1       8.739  21.689  -0.420  0.00  0.00    -0.298 N 
BRANCH  28  29
ATOM     29  C   LIG d   1       8.619  22.628  -1.548  0.00  0.00     0.144 C 
BRANCH  29  30
ATOM     30  C   LIG d   1       8.605  24.090  -1.114  0.00  0.00     0.133 C 
BRANCH  30  31
ATOM     31  C   LIG d   1       7.210  24.651  -0.896  0.00  0.00     0.174 C 
ATOM     32  O   LIG d   1       6.272  23.956  -1.378  0.00  0.00    -0.648 OA
ATOM     33  O   LIG d   1       7.141  25.725  -0.236  0.00  0.00    -0.648 OA
ENDBRANCH  30  31
ENDBRANCH  29  30
ENDBRANCH  28  29
BRANCH  28  34
ATOM     34  C   LIG d   1       9.536  22.061   0.704  0.00  0.00     0.132 A 
ATOM     35  N   LIG d   1       8.907  22.550   1.802  0.00  0.00    -0.243 NA
ATOM     36  C   LIG d   1       9.659  22.916   2.864  0.00  0.00     0.119 A 
ATOM     37  C   LIG d   1      11.037  22.829   2.902  0.00  0.00     0.019 A 
ATOM     38  C   LIG d   1      11.680  22.331   1.781  0.00  0.00     0.005 A 
ATOM     39  C   LIG d   1      10.925  21.945   0.674  0.00  0.00     0.051 A 
ENDBRANCH  28  34
ENDBRANCH   6  26
TORSDOF 10
ENDMDL
MODEL 3
REMARK VINA RESULT:      -7.4     29.798     34.123
REMARK  10 active torsions:
REMARK  status: ('A' for Active; 'I' for Inactive)
REMARK       I    between atoms: N_6  and  C_20 
REMARK    1  A    between atoms: N_6  and  C_21 
REMARK    2  A    between atoms: N_6  and  C_24 
REMARK    3  A    between atoms: N_7  and  C_14 
REMARK    4  A    between atoms: N_7  and  C_22 
REMARK    5  A    between atoms: N_9  and  C_35 
REMARK    6  A    between atoms: C_12  and  C_14 
REMARK    7  A    between atoms: C_15  and  C_20 
REMARK    8  A    between atoms: C_21  and  C_23 
REMARK    9  A    between atoms: C_23  and  C_31 
REMARK   10  A    between atoms: C_30  and  C_35 
ROOT
ATOM      1  N   LIG d   1       7.391  -4.590  25.273  0.00  0.00    -0.337 N 
ATOM      2  N   LIG d   1       6.167  -4.563  23.424  0.00  0.00    -0.232 NA
ATOM      3  C   LIG d   1       6.313  -5.404  25.534  0.00  0.00     0.064 A 
ATOM      4  C   LIG d   1       7.236  -4.059  24.011  0.00  0.00     0.120 A 
ATOM      5  C   LIG d   1       5.586  -5.399  24.346  0.00  0.00     0.086 A 
ATOM      6  C   LIG d   1       4.003  -6.925  25.346  0.00  0.00     0.035 A 
ATOM      7  C   LIG d   1       4.434  -6.190  24.228  0.00  0.00     0.051 A 
ATOM      8  C   LIG d   1       5.922  -6.147  26.654  0.00  0.00     0.033 A 
ATOM      9  C   LIG d   1       4.751  -6.902  26.535  0.00  0.00     0.019 A 
ATOM     10  C   LIG d   1       8.511  -4.360  26.152  0.00  0.00     0.158 C 
ENDROOT
BRANCH   4  11
ATOM     11  C   LIG d   1       8.174  -3.066  23.387  0.00  0.00     0.171 C 
BRANCH  11  12
ATOM     12  N   LIG d   1       7.644  -1.704  23.395  0.00  0.00    -0.286 NA
ATOM     13  H   LIG d   1       8.322  -1.084  23.845  0.00  0.00     0.128 HD
BRANCH  12  14
ATOM     14  C   LIG d   1       7.162  -1.157  22.199  0.00  0.00     0.008 A 
ATOM     15  C   LIG d   1       6.362  -1.871  21.298  0.00  0.00     0.024 A 
ATOM     16  C   LIG d   1       5.832  -1.261  20.154  0.00  0.00     0.017 A 
ATOM     17  C   LIG d   1       6.072   0.094  19.901  0.00  0.00     0.009 A 
ATOM     18  C   LIG d   1       6.823   0.830  20.819  0.00  0.00     0.017 A 
ATOM     19  C   LIG d   1       7.350   0.211  21.958  0.00  0.00     0.024 A 
BRANCH  17  20
ATOM     20  C   LIG d   1       5.541   0.743  18.678  0.00  0.00     0.123 C 
ATOM     21  N   LIG d   1       5.670   0.128  17.521  0.00  0.00    -0.284 NA
ATOM     22  H   LIG d   1       5.282   0.629  16.713  0.00  0.00     0.188 HD
BRANCH  20  23
ATOM     23  N   LIG d   1       4.945   1.870  18.701  0.00  0.00    -0.384 N 
ATOM     24  H   LIG d   1       5.053   2.431  19.539  0.00  0.00     0.157 HD
ATOM     25  H   LIG d   1       4.427   2.220  17.906  0.00  0.00     0.157 HD
ENDBRANCH  20  23
ENDBRANCH  17  20
ENDBRANCH  12  14
ENDBRANCH  11  12
ENDBRANCH   4  11
BRANCH   6  26
ATOM     26  C   LIG d   1       2.825  -7.841  25.283  0.00  0.00     0.259 C 
ATOM     27  O   LIG d   1       3.068  -9.024  25.023  0.00  0.00    -0.267 OA
ATOM     28  N   LIG d   1       1.522  -7.338  25.407  0.00  0.00    -0.298 N 
BRANCH  28  29
ATOM     29  C   LIG d   1       0.431  -8.177  24.882  0.00  0.00     0.144 C 
BRANCH  29  30
ATOM     30  C   LIG d   1      -0.204  -7.612  23.616  0.00  0.00     0.133 C 
BRANCH  30  31
ATOM     31  C   LIG d   1       0.764  -7.478  22.453  0.00  0.00     0.174 C 
ATOM     32  O   LIG d   1       1.187  -6.307  22.241  0.00  0.00    -0.648 OA
ATOM     33  O   LIG d   1       1.059  -8.549  21.850  0.00  0.00    -0.648 OA
ENDBRANCH  30  31
ENDBRANCH  29  30
ENDBRANCH  28  29
BRANCH  28  34
ATOM     34  C   LIG d   1       1.202  -6.268  26.295  0.00  0.00     0.132 A 
ATOM     35  N   LIG d   1       1.007  -5.033  25.767  0.00  0.00    -0.243 NA
ATOM     36  C   LIG d   1       0.716  -4.015  26.606  0.00  0.00     0.119 A 
ATOM     37  C   LIG d   1       0.610  -4.148  27.977  0.00  0.00     0.019 A 
ATOM     38  C   LIG d   1       0.811  -5.408  28.517  0.00  0.00     0.005 A 
ATOM     39  C   LIG d   1       1.109  -6.475  27.671  0.00  0.00     0.051 A 
ENDBRANCH  28  34
ENDBRANCH   6  26
TORSDOF 10
ENDMDL
MODEL 4
REMARK VINA RESULT:      -7.2     21.799     24.666
REMARK  10 active torsions:
REMARK  status: ('A' for Active; 'I' for Inactive)
REMARK       I    between atoms: N_6  and  C_20 
REMARK    1  A    between atoms: N_6  and  C_21 
REMARK    2  A    between atoms: N_6  and  C_24 
REMARK    3  A    between atoms: N_7  and  C_14 
REMARK    4  A    between atoms: N_7  and  C_22 
REMARK    5  A    between atoms: N_9  and  C_35 
REMARK    6  A    between atoms: C_12  and  C_14 
REMARK    7  A    between atoms: C_15  and  C_20 
REMARK    8  A    between atoms: C_21  and  C_23 
REMARK    9  A    between atoms: C_23  and  C_31 
REMARK   10  A    between atoms: C_30  and  C_35 
ROOT
ATOM      1  N   LIG d   1      10.898  18.105   5.143  0.00  0.00    -0.337 N 
ATOM      2  N   LIG d   1      10.056  17.428   3.206  0.00  0.00    -0.232 NA
ATOM      3  C   LIG d   1      10.457  16.820   5.362  0.00  0.00     0.064 A 
ATOM      4  C   LIG d   1      10.587  18.453   3.846  0.00  0.00     0.120 A 
ATOM      5  C   LIG d   1       9.971  16.409   4.123  0.00  0.00     0.086 A 
ATOM      6  C   LIG d   1       9.454  14.252   5.078  0.00  0.00     0.035 A 
ATOM      7  C   LIG d   1       9.492  15.101   3.959  0.00  0.00     0.051 A 
ATOM      8  C   LIG d   1      10.456  15.987   6.486  0.00  0.00     0.033 A 
ATOM      9  C   LIG d   1       9.941  14.697   6.318  0.00  0.00     0.019 A 
ATOM     10  C   LIG d   1      11.600  18.934   6.092  0.00  0.00     0.158 C 
ENDROOT
BRANCH   4  11
ATOM     11  C   LIG d   1      10.846  19.804   3.245  0.00  0.00     0.171 C 
BRANCH  11  12
ATOM     12  N   LIG d   1      10.998  19.757   1.792  0.00  0.00    -0.286 NA
ATOM     13  H   LIG d   1      10.792  18.810   1.465  0.00  0.00     0.128 HD
BRANCH  12  14
ATOM     14  C   LIG d   1      10.349  20.722   1.011  0.00  0.00     0.008 A 
ATOM     15  C   LIG d   1      10.776  22.053   0.927  0.00  0.00     0.024 A 
ATOM     16  C   LIG d   1      10.148  22.967   0.070  0.00  0.00     0.017 A 
ATOM     17  C   LIG d   1       9.089  22.556  -0.746  0.00  0.00     0.009 A 
ATOM     18  C   LIG d   1       8.689  21.219  -0.712  0.00  0.00     0.017 A 
ATOM     19  C   LIG d   1       9.321  20.315   0.149  0.00  0.00     0.024 A 
BRANCH  17  20
ATOM     20  C   LIG d   1       8.398  23.520  -1.635  0.00  0.00     0.123 C 
ATOM     21  N   LIG d   1       8.765  24.785  -1.614  0.00  0.00    -0.284 NA
ATOM     22  H   LIG d   1       8.248  25.401  -2.252  0.00  0.00     0.188 HD
BRANCH  20  23
ATOM     23  N   LIG d   1       7.471  23.172  -2.439  0.00  0.00    -0.384 N 
ATOM     24  H   LIG d   1       6.929  23.915  -2.867  0.00  0.00     0.157 HD
ATOM     25  H   LIG d   1       7.309  22.205  -2.685  0.00  0.00     0.157 HD
ENDBRANCH  20  23
ENDBRANCH  17  20
ENDBRANCH  12  14
ENDBRANCH  11  12
ENDBRANCH   4  11
BRANCH   6  26
ATOM     26  C   LIG d   1       9.020  12.827   4.973  0.00  0.00     0.259 C 
ATOM     27  O   LIG d   1       9.889  11.974   5.183  0.00  0.00    -0.267 OA
ATOM     28  N   LIG d   1       7.722  12.506   4.551  0.00  0.00    -0.298 N 
BRANCH  28  29
ATOM     29  C   LIG d   1       7.508  11.145   4.029  0.00  0.00     0.144 C 
BRANCH  29  30
ATOM     30  C   LIG d   1       7.188  11.117   2.539  0.00  0.00     0.133 C 
BRANCH  30  31
ATOM     31  C   LIG d   1       5.898  10.386   2.202  0.00  0.00     0.174 C 
ATOM     32  O   LIG d   1       4.916  10.665   2.946  0.00  0.00    -0.648 OA
ATOM     33  O   LIG d   1       5.944   9.611   1.207  0.00  0.00    -0.648 OA
ENDBRANCH  30  31
ENDBRANCH  29  30
ENDBRANCH  28  29
BRANCH  28  34
ATOM     34  C   LIG d   1       6.587  13.287   4.923  0.00  0.00     0.132 A 
ATOM     35  N   LIG d   1       6.197  13.272   6.223  0.00  0.00    -0.243 NA
ATOM     36  C   LIG d   1       5.115  14.000   6.576  0.00  0.00     0.119 A 
ATOM     37  C   LIG d   1       4.372  14.760   5.694  0.00  0.00     0.019 A 
ATOM     38  C   LIG d   1       4.769  14.775   4.367  0.00  0.00     0.005 A 
ATOM     39  C   LIG d   1       5.884  14.032   3.978  0.00  0.00     0.051 A 
ENDBRANCH  28  34
ENDBRANCH   6  26
TORSDOF 10
ENDMDL
MODEL 5
REMARK VINA RESULT:      -7.2     21.397     24.047
REMARK  10 active torsions:
REMARK  status: ('A' for Active; 'I' for Inactive)
REMARK       I    between atoms: N_6  and  C_20 
REMARK    1  A    between atoms: N_6  and  C_21 
REMARK    2  A    between atoms: N_6  and  C_24 
REMARK    3  A    between atoms: N_7  and  C_14 
REMARK    4  A    between atoms: N_7  and  C_22 
REMARK    5  A    between atoms: N_9  and  C_35 
REMARK    6  A    between atoms: C_12  and  C_14 
REMARK    7  A    between atoms: C_15  and  C_20 
REMARK    8  A    between atoms: C_21  and  C_23 
REMARK    9  A    between atoms: C_23  and  C_31 
REMARK   10  A    between atoms: C_30  and  C_35 
ROOT
ATOM      1  N   LIG d   1       9.404  16.976   2.922  0.00  0.00    -0.337 N 
ATOM      2  N   LIG d   1       9.014  15.581   1.243  0.00  0.00    -0.232 NA
ATOM      3  C   LIG d   1       8.971  15.808   3.507  0.00  0.00     0.064 A 
ATOM      4  C   LIG d   1       9.362  16.815   1.554  0.00  0.00     0.120 A 
ATOM      5  C   LIG d   1       8.773  14.942   2.435  0.00  0.00     0.086 A 
ATOM      6  C   LIG d   1       8.141  13.209   3.995  0.00  0.00     0.035 A 
ATOM      7  C   LIG d   1       8.385  13.615   2.672  0.00  0.00     0.051 A 
ATOM      8  C   LIG d   1       8.763  15.423   4.837  0.00  0.00     0.033 A 
ATOM      9  C   LIG d   1       8.340  14.108   5.055  0.00  0.00     0.019 A 
ATOM     10  C   LIG d   1       9.860  18.154   3.617  0.00  0.00     0.158 C 
ENDROOT
BRANCH   4  11
ATOM     11  C   LIG d   1       9.694  17.893   0.562  0.00  0.00     0.171 C 
BRANCH  11  12
ATOM     12  N   LIG d   1       8.508  18.572   0.046  0.00  0.00    -0.286 NA
ATOM     13  H   LIG d   1       7.716  18.380   0.665  0.00  0.00     0.128 HD
BRANCH  12  14
ATOM     14  C   LIG d   1       8.591  19.933  -0.273  0.00  0.00     0.008 A 
ATOM     15  C   LIG d   1       7.504  20.677  -0.749  0.00  0.00     0.024 A 
ATOM     16  C   LIG d   1       7.609  22.056  -0.977  0.00  0.00     0.017 A 
ATOM     17  C   LIG d   1       8.806  22.727  -0.705  0.00  0.00     0.009 A 
ATOM     18  C   LIG d   1       9.880  22.007  -0.178  0.00  0.00     0.017 A 
ATOM     19  C   LIG d   1       9.766  20.630   0.044  0.00  0.00     0.024 A 
BRANCH  17  20
ATOM     20  C   LIG d   1       8.938  24.180  -0.970  0.00  0.00     0.123 C 
ATOM     21  N   LIG d   1       9.746  24.896  -0.217  0.00  0.00    -0.284 NA
ATOM     22  H   LIG d   1       9.793  25.895  -0.451  0.00  0.00     0.188 HD
BRANCH  20  23
ATOM     23  N   LIG d   1       8.312  24.766  -1.914  0.00  0.00    -0.384 N 
ATOM     24  H   LIG d   1       7.511  25.332  -1.655  0.00  0.00     0.157 HD
ATOM     25  H   LIG d   1       8.622  24.718  -2.875  0.00  0.00     0.157 HD
ENDBRANCH  20  23
ENDBRANCH  17  20
ENDBRANCH  12  14
ENDBRANCH  11  12
ENDBRANCH   4  11
BRANCH   6  26
ATOM     26  C   LIG d   1       7.789  11.798   4.335  0.00  0.00     0.259 C 
ATOM     27  O   LIG d   1       8.712  11.092   4.756  0.00  0.00    -0.267 OA
ATOM     28  N   LIG d   1       6.503  11.302   4.079  0.00  0.00    -0.298 N 
BRANCH  28  29
ATOM     29  C   LIG d   1       6.358   9.838   3.995  0.00  0.00     0.144 C 
BRANCH  29  30
ATOM     30  C   LIG d   1       5.547   9.384   2.786  0.00  0.00     0.133 C 
BRANCH  30  31
ATOM     31  C   LIG d   1       4.537   8.293   3.100  0.00  0.00     0.174 C 
ATOM     32  O   LIG d   1       3.584   8.647   3.849  0.00  0.00    -0.648 OA
ATOM     33  O   LIG d   1       4.745   7.172   2.558  0.00  0.00    -0.648 OA
ENDBRANCH  30  31
ENDBRANCH  29  30
ENDBRANCH  28  29
BRANCH  28  34
ATOM     34  C   LIG d   1       5.333  12.101   4.245  0.00  0.00     0.132 A 
ATOM     35  N   LIG d   1       4.721  12.098   5.456  0.00  0.00    -0.243 NA
ATOM     36  C   LIG d   1       3.605  12.844   5.613  0.00  0.00     0.119 A 
ATOM     37  C   LIG d   1       3.040  13.611   4.613  0.00  0.00     0.019 A 
ATOM     38  C   LIG d   1       3.664  13.614   3.377  0.00  0.00     0.005 A 
ATOM     39  C   LIG d   1       4.818  12.854   3.190  0.00  0.00     0.051 A 
ENDBRANCH  28  34
ENDBRANCH   6  26
TORSDOF 10
ENDMDL
MODEL 6
REMARK VINA RESULT:      -7.1     23.473     26.230
REMARK  10 active torsions:
REMARK  status: ('A' for Active; 'I' for Inactive)
REMARK       I    between atoms: N_6  and  C_20 
REMARK    1  A    between atoms: N_6  and  C_21 
REMARK    2  A    between atoms: N_6  and  C_24 
REMARK    3  A    between atoms: N_7  and  C_14 
REMARK    4  A    between atoms: N_7  and  C_22 
REMARK    5  A    between atoms: N_9  and  C_35 
REMARK    6  A    between atoms: C_12  and  C_14 
REMARK    7  A    between atoms: C_15  and  C_20 
REMARK    8  A    between atoms: C_21  and  C_23 
REMARK    9  A    between atoms: C_23  and  C_31 
REMARK   10  A    between atoms: C_30  and  C_35 
ROOT
ATOM      1  N   LIG d   1       9.023  17.484   2.796  0.00  0.00    -0.337 N 
ATOM      2  N   LIG d   1       9.904  17.551   0.762  0.00  0.00    -0.232 NA
ATOM      3  C   LIG d   1       9.210  18.819   2.520  0.00  0.00     0.064 A 
ATOM      4  C   LIG d   1       9.505  16.751   1.734  0.00  0.00     0.120 A 
ATOM      5  C   LIG d   1       9.726  18.831   1.226  0.00  0.00     0.086 A 
ATOM      6  C   LIG d   1       9.768  21.245   1.302  0.00  0.00     0.035 A 
ATOM      7  C   LIG d   1       9.980  20.054   0.587  0.00  0.00     0.051 A 
ATOM      8  C   LIG d   1       8.963  19.991   3.245  0.00  0.00     0.033 A 
ATOM      9  C   LIG d   1       9.257  21.202   2.609  0.00  0.00     0.019 A 
ATOM     10  C   LIG d   1       8.395  16.942   3.976  0.00  0.00     0.158 C 
ENDROOT
BRANCH   4  11
ATOM     11  C   LIG d   1       9.543  15.251   1.685  0.00  0.00     0.171 C 
BRANCH  11  12
ATOM     12  N   LIG d   1       8.309  14.671   1.157  0.00  0.00    -0.286 NA
ATOM     13  H   LIG d   1       8.404  14.547   0.147  0.00  0.00     0.128 HD
BRANCH  12  14
ATOM     14  C   LIG d   1       7.784  13.526   1.769  0.00  0.00     0.008 A 
ATOM     15  C   LIG d   1       6.885  12.661   1.131  0.00  0.00     0.024 A 
ATOM     16  C   LIG d   1       6.447  11.482   1.748  0.00  0.00     0.017 A 
ATOM     17  C   LIG d   1       6.926  11.128   3.014  0.00  0.00     0.009 A 
ATOM     18  C   LIG d   1       7.863  11.954   3.638  0.00  0.00     0.017 A 
ATOM     19  C   LIG d   1       8.292  13.131   3.014  0.00  0.00     0.024 A 
BRANCH  17  20
ATOM     20  C   LIG d   1       6.447   9.898   3.690  0.00  0.00     0.123 C 
ATOM     21  N   LIG d   1       5.688   9.056   3.020  0.00  0.00    -0.284 NA
ATOM     22  H   LIG d   1       5.390   8.224   3.544  0.00  0.00     0.188 HD
BRANCH  20  23
ATOM     23  N   LIG d   1       6.758   9.609   4.892  0.00  0.00    -0.384 N 
ATOM     24  H   LIG d   1       7.143   8.686   5.060  0.00  0.00     0.157 HD
ATOM     25  H   LIG d   1       6.676  10.280   5.644  0.00  0.00     0.157 HD
ENDBRANCH  20  23
ENDBRANCH  17  20
ENDBRANCH  12  14
ENDBRANCH  11  12
ENDBRANCH   4  11
BRANCH   6  26
ATOM     26  C   LIG d   1       9.953  22.587   0.672  0.00  0.00     0.259 C 
ATOM     27  O   LIG d   1      11.121  22.949   0.493  0.00  0.00    -0.267 OA
ATOM     28  N   LIG d   1       8.849  23.410   0.409  0.00  0.00    -0.298 N 
BRANCH  28  29
ATOM     29  C   LIG d   1       9.116  24.849   0.237  0.00  0.00     0.144 C 
BRANCH  29  30
ATOM     30  C   LIG d   1       8.358  25.465  -0.933  0.00  0.00     0.133 C 
BRANCH  30  31
ATOM     31  C   LIG d   1       7.650  26.765  -0.588  0.00  0.00     0.174 C 
ATOM     32  O   LIG d   1       6.870  26.702   0.403  0.00  0.00    -0.648 OA
ATOM     33  O   LIG d   1       7.940  27.762  -1.307  0.00  0.00    -0.648 OA
ENDBRANCH  30  31
ENDBRANCH  29  30
ENDBRANCH  28  29
BRANCH  28  34
ATOM     34  C   LIG d   1       7.597  22.886  -0.030  0.00  0.00     0.132 A 
ATOM     35  N   LIG d   1       6.505  23.103   0.746  0.00  0.00    -0.243 NA
ATOM     36  C   LIG d   1       5.319  22.596   0.341  0.00  0.00     0.119 A 
ATOM     37  C   LIG d   1       5.146  21.863  -0.816  0.00  0.00     0.019 A 
ATOM     38  C   LIG d   1       6.260  21.641  -1.608  0.00  0.00     0.005 A 
ATOM     39  C   LIG d   1       7.495  22.155  -1.212  0.00  0.00     0.051 A 
ENDBRANCH  28  34
ENDBRANCH   6  26
TORSDOF 10
ENDMDL
MODEL 7
REMARK VINA RESULT:      -7.1     22.702     25.547
REMARK  10 active torsions:
REMARK  status: ('A' for Active; 'I' for Inactive)
REMARK       I    between atoms: N_6  and  C_20 
REMARK    1  A    between atoms: N_6  and  C_21 
REMARK    2  A    between atoms: N_6  and  C_24 
REMARK    3  A    between atoms: N_7  and  C_14 
REMARK    4  A    between atoms: N_7  and  C_22 
REMARK    5  A    between atoms: N_9  and  C_35 
REMARK    6  A    between atoms: C_12  and  C_14 
REMARK    7  A    between atoms: C_15  and  C_20 
REMARK    8  A    between atoms: C_21  and  C_23 
REMARK    9  A    between atoms: C_23  and  C_31 
REMARK   10  A    between atoms: C_30  and  C_35 
ROOT
ATOM      1  N   LIG d   1       7.630  16.455   3.206  0.00  0.00    -0.337 N 
ATOM      2  N   LIG d   1       8.815  16.363   1.333  0.00  0.00    -0.232 NA
ATOM      3  C   LIG d   1       7.483  17.690   2.616  0.00  0.00     0.064 A 
ATOM      4  C   LIG d   1       8.485  15.705   2.429  0.00  0.00     0.120 A 
ATOM      5  C   LIG d   1       8.202  17.589   1.428  0.00  0.00     0.086 A 
ATOM      6  C   LIG d   1       7.551  19.849   0.880  0.00  0.00     0.035 A 
ATOM      7  C   LIG d   1       8.217  18.663   0.526  0.00  0.00     0.051 A 
ATOM      8  C   LIG d   1       6.788  18.849   2.981  0.00  0.00     0.033 A 
ATOM      9  C   LIG d   1       6.843  19.926   2.090  0.00  0.00     0.019 A 
ATOM     10  C   LIG d   1       6.974  16.007   4.409  0.00  0.00     0.158 C 
ENDROOT
BRANCH   4  11
ATOM     11  C   LIG d   1       8.950  14.319   2.774  0.00  0.00     0.171 C 
BRANCH  11  12
ATOM     12  N   LIG d   1       8.330  13.290   1.942  0.00  0.00    -0.286 NA
ATOM     13  H   LIG d   1       8.989  13.008   1.212  0.00  0.00     0.128 HD
BRANCH  12  14
ATOM     14  C   LIG d   1       7.744  12.180   2.562  0.00  0.00     0.008 A 
ATOM     15  C   LIG d   1       7.863  11.916   3.932  0.00  0.00     0.024 A 
ATOM     16  C   LIG d   1       7.192  10.839   4.527  0.00  0.00     0.017 A 
ATOM     17  C   LIG d   1       6.359  10.016   3.761  0.00  0.00     0.009 A 
ATOM     18  C   LIG d   1       6.188  10.302   2.406  0.00  0.00     0.017 A 
ATOM     19  C   LIG d   1       6.865  11.378   1.820  0.00  0.00     0.024 A 
BRANCH  17  20
ATOM     20  C   LIG d   1       5.667   8.857   4.374  0.00  0.00     0.123 C 
ATOM     21  N   LIG d   1       5.310   8.922   5.640  0.00  0.00    -0.284 NA
ATOM     22  H   LIG d   1       4.836   8.088   6.005  0.00  0.00     0.188 HD
BRANCH  20  23
ATOM     23  N   LIG d   1       5.383   7.801   3.719  0.00  0.00    -0.384 N 
ATOM     24  H   LIG d   1       4.613   7.858   3.061  0.00  0.00     0.157 HD
ATOM     25  H   LIG d   1       5.928   6.953   3.804  0.00  0.00     0.157 HD
ENDBRANCH  20  23
ENDBRANCH  17  20
ENDBRANCH  12  14
ENDBRANCH  11  12
ENDBRANCH   4  11
BRANCH   6  26
ATOM     26  C   LIG d   1       7.465  21.014  -0.051  0.00  0.00     0.259 C 
ATOM     27  O   LIG d   1       6.402  21.140  -0.669  0.00  0.00    -0.267 OA
ATOM     28  N   LIG d   1       8.580  21.835  -0.273  0.00  0.00    -0.298 N 
BRANCH  28  29
ATOM     29  C   LIG d   1       8.580  22.642  -1.506  0.00  0.00     0.144 C 
BRANCH  29  30
ATOM     30  C   LIG d   1       8.947  24.102  -1.267  0.00  0.00     0.133 C 
BRANCH  30  31
ATOM     31  C   LIG d   1       7.745  25.021  -1.125  0.00  0.00     0.174 C 
ATOM     32  O   LIG d   1       6.662  24.443  -0.829  0.00  0.00    -0.648 OA
ATOM     33  O   LIG d   1       7.967  26.254  -1.289  0.00  0.00    -0.648 OA
ENDBRANCH  30  31
ENDBRANCH  29  30
ENDBRANCH  28  29
BRANCH  28  34
ATOM     34  C   LIG d   1       9.495  22.170   0.769  0.00  0.00     0.132 A 
ATOM     35  N   LIG d   1       9.026  22.864   1.836  0.00  0.00    -0.243 NA
ATOM     36  C   LIG d   1       9.893  23.194   2.819  0.00  0.00     0.119 A 
ATOM     37  C   LIG d   1      11.236  22.874   2.806  0.00  0.00     0.019 A 
ATOM     38  C   LIG d   1      11.716  22.166   1.716  0.00  0.00     0.005 A 
ATOM     39  C   LIG d   1      10.840  21.812   0.690  0.00  0.00     0.051 A 
ENDBRANCH  28  34
ENDBRANCH   6  26
TORSDOF 10
ENDMDL
MODEL 8
REMARK VINA RESULT:      -6.9     18.765     20.579
REMARK  10 active torsions:
REMARK  status: ('A' for Active; 'I' for Inactive)
REMARK       I    between atoms: N_6  and  C_20 
REMARK    1  A    between atoms: N_6  and  C_21 
REMARK    2  A    between atoms: N_6  and  C_24 
REMARK    3  A    between atoms: N_7  and  C_14 
REMARK    4  A    between atoms: N_7  and  C_22 
REMARK    5  A    between atoms: N_9  and  C_35 
REMARK    6  A    between atoms: C_12  and  C_14 
REMARK    7  A    between atoms: C_15  and  C_20 
REMARK    8  A    between atoms: C_21  and  C_23 
REMARK    9  A    between atoms: C_23  and  C_31 
REMARK   10  A    between atoms: C_30  and  C_35 
ROOT
ATOM      1  N   LIG d   1       4.118   7.429   4.735  0.00  0.00    -0.337 N 
ATOM      2  N   LIG d   1       3.750   7.612   2.556  0.00  0.00    -0.232 NA
ATOM      3  C   LIG d   1       4.937   8.448   4.309  0.00  0.00     0.064 A 
ATOM      4  C   LIG d   1       3.461   6.915   3.639  0.00  0.00     0.120 A 
ATOM      5  C   LIG d   1       4.656   8.566   2.949  0.00  0.00     0.086 A 
ATOM      6  C   LIG d   1       6.224  10.399   2.819  0.00  0.00     0.035 A 
ATOM      7  C   LIG d   1       5.277   9.571   2.193  0.00  0.00     0.051 A 
ATOM      8  C   LIG d   1       5.855   9.277   4.964  0.00  0.00     0.033 A 
ATOM      9  C   LIG d   1       6.495  10.250   4.188  0.00  0.00     0.019 A 
ATOM     10  C   LIG d   1       3.945   6.995   6.100  0.00  0.00     0.158 C 
ENDROOT
BRANCH   4  11
ATOM     11  C   LIG d   1       2.525   5.741   3.683  0.00  0.00     0.171 C 
BRANCH  11  12
ATOM     12  N   LIG d   1       2.731   4.811   2.574  0.00  0.00    -0.286 NA
ATOM     13  H   LIG d   1       3.099   3.930   2.940  0.00  0.00     0.128 HD
BRANCH  12  14
ATOM     14  C   LIG d   1       1.686   4.594   1.668  0.00  0.00     0.008 A 
ATOM     15  C   LIG d   1       1.280   3.317   1.258  0.00  0.00     0.024 A 
ATOM     16  C   LIG d   1       0.175   3.140   0.415  0.00  0.00     0.017 A 
ATOM     17  C   LIG d   1      -0.568   4.245  -0.016  0.00  0.00     0.009 A 
ATOM     18  C   LIG d   1      -0.207   5.518   0.429  0.00  0.00     0.017 A 
ATOM     19  C   LIG d   1       0.900   5.684   1.269  0.00  0.00     0.024 A 
BRANCH  17  20
ATOM     20  C   LIG d   1      -1.721   4.072  -0.932  0.00  0.00     0.123 C 
ATOM     21  N   LIG d   1      -1.607   4.463  -2.184  0.00  0.00    -0.284 NA
ATOM     22  H   LIG d   1      -2.439   4.317  -2.767  0.00  0.00     0.188 HD
BRANCH  20  23
ATOM     23  N   LIG d   1      -2.819   3.541  -0.562  0.00  0.00    -0.384 N 
ATOM     24  H   LIG d   1      -3.644   4.131  -0.571  0.00  0.00     0.157 HD
ATOM     25  H   LIG d   1      -2.887   2.561  -0.319  0.00  0.00     0.157 HD
ENDBRANCH  20  23
ENDBRANCH  17  20
ENDBRANCH  12  14
ENDBRANCH  11  12
ENDBRANCH   4  11
BRANCH   6  26
ATOM     26  C   LIG d   1       6.879  11.532   2.099  0.00  0.00     0.259 C 
ATOM     27  O   LIG d   1       7.516  11.237   1.082  0.00  0.00    -0.267 OA
ATOM     28  N   LIG d   1       6.848  12.829   2.631  0.00  0.00    -0.298 N 
BRANCH  28  29
ATOM     29  C   LIG d   1       7.870  13.773   2.148  0.00  0.00     0.144 C 
BRANCH  29  30
ATOM     30  C   LIG d   1       9.079  13.874   3.073  0.00  0.00     0.133 C 
BRANCH  30  31
ATOM     31  C   LIG d   1      10.159  14.816   2.568  0.00  0.00     0.174 C 
ATOM     32  O   LIG d   1       9.819  15.549   1.597  0.00  0.00    -0.648 OA
ATOM     33  O   LIG d   1      11.258  14.784   3.190  0.00  0.00    -0.648 OA
ENDBRANCH  30  31
ENDBRANCH  29  30
ENDBRANCH  28  29
BRANCH  28  34
ATOM     34  C   LIG d   1       5.705  13.342   3.316  0.00  0.00     0.132 A 
ATOM     35  N   LIG d   1       5.881  13.857   4.559  0.00  0.00    -0.243 NA
ATOM     36  C   LIG d   1       4.800  14.332   5.215  0.00  0.00     0.119 A 
ATOM     37  C   LIG d   1       3.517  14.322   4.703  0.00  0.00     0.019 A 
ATOM     38  C   LIG d   1       3.337  13.796   3.434  0.00  0.00     0.005 A 
ATOM     39  C   LIG d   1       4.439  13.302   2.736  0.00  0.00     0.051 A 
ENDBRANCH  28  34
ENDBRANCH   6  26
TORSDOF 10
ENDMDL
MODEL 9
REMARK VINA RESULT:      -6.8     21.494     24.253
REMARK  10 active torsions:
REMARK  status: ('A' for Active; 'I' for Inactive)
REMARK       I    between atoms: N_6  and  C_20 
REMARK    1  A    between atoms: N_6  and  C_21 
REMARK    2  A    between atoms: N_6  and  C_24 
REMARK    3  A    between atoms: N_7  and  C_14 
REMARK    4  A    between atoms: N_7  and  C_22 
REMARK    5  A    between atoms: N_9  and  C_35 
REMARK    6  A    between atoms: C_12  and  C_14 
REMARK    7  A    between atoms: C_15  and  C_20 
REMARK    8  A    between atoms: C_21  and  C_23 
REMARK    9  A    between atoms: C_23  and  C_31 
REMARK   10  A    between atoms: C_30  and  C_35 
ROOT
ATOM      1  N   LIG d   1       7.567  14.613   4.302  0.00  0.00    -0.337 N 
ATOM      2  N   LIG d   1       9.289  14.452   2.914  0.00  0.00    -0.232 NA
ATOM      3  C   LIG d   1       7.602  15.807   3.620  0.00  0.00     0.064 A 
ATOM      4  C   LIG d   1       8.634  13.846   3.887  0.00  0.00     0.120 A 
ATOM      5  C   LIG d   1       8.665  15.662   2.732  0.00  0.00     0.086 A 
ATOM      6  C   LIG d   1       8.198  17.868   1.865  0.00  0.00     0.035 A 
ATOM      7  C   LIG d   1       8.955  16.685   1.817  0.00  0.00     0.051 A 
ATOM      8  C   LIG d   1       6.815  16.963   3.672  0.00  0.00     0.033 A 
ATOM      9  C   LIG d   1       7.139  17.990   2.779  0.00  0.00     0.019 A 
ATOM     10  C   LIG d   1       6.565  14.212   5.259  0.00  0.00     0.158 C 
ENDROOT
BRANCH   4  11
ATOM     11  C   LIG d   1       8.980  12.497   4.448  0.00  0.00     0.171 C 
BRANCH  11  12
ATOM     12  N   LIG d   1       8.754  11.413   3.494  0.00  0.00    -0.286 NA
ATOM     13  H   LIG d   1       9.293  10.594   3.786  0.00  0.00     0.128 HD
BRANCH  12  14
ATOM     14  C   LIG d   1       7.439  11.069   3.158  0.00  0.00     0.008 A 
ATOM     15  C   LIG d   1       6.503  10.613   4.095  0.00  0.00     0.024 A 
ATOM     16  C   LIG d   1       5.173  10.359   3.732  0.00  0.00     0.017 A 
ATOM     17  C   LIG d   1       4.745  10.585   2.420  0.00  0.00     0.009 A 
ATOM     18  C   LIG d   1       5.654  11.091   1.489  0.00  0.00     0.017 A 
ATOM     19  C   LIG d   1       6.980  11.339   1.861  0.00  0.00     0.024 A 
BRANCH  17  20
ATOM     20  C   LIG d   1       3.348  10.292   2.017  0.00  0.00     0.123 C 
ATOM     21  N   LIG d   1       2.741   9.244   2.533  0.00  0.00    -0.284 NA
ATOM     22  H   LIG d   1       1.776   9.096   2.214  0.00  0.00     0.188 HD
BRANCH  20  23
ATOM     23  N   LIG d   1       2.699  11.027   1.202  0.00  0.00    -0.384 N 
ATOM     24  H   LIG d   1       3.174  11.300   0.348  0.00  0.00     0.157 HD
ATOM     25  H   LIG d   1       1.736  11.290   1.365  0.00  0.00     0.157 HD
ENDBRANCH  20  23
ENDBRANCH  17  20
ENDBRANCH  12  14
ENDBRANCH  11  12
ENDBRANCH   4  11
BRANCH   6  26
ATOM     26  C   LIG d   1       8.402  18.976   0.884  0.00  0.00     0.259 C 
ATOM     27  O   LIG d   1       7.562  19.066  -0.019  0.00  0.00    -0.267 OA
ATOM     28  N   LIG d   1       9.546  19.783   0.945  0.00  0.00    -0.298 N 
BRANCH  28  29
ATOM     29  C   LIG d   1       9.913  20.515  -0.279  0.00  0.00     0.144 C 
BRANCH  29  30
ATOM     30  C   LIG d   1       9.798  22.028  -0.131  0.00  0.00     0.133 C 
BRANCH  30  31
ATOM     31  C   LIG d   1       8.516  22.605  -0.710  0.00  0.00     0.174 C 
ATOM     32  O   LIG d   1       7.481  22.412  -0.014  0.00  0.00    -0.648 OA
ATOM     33  O   LIG d   1       8.634  23.234  -1.799  0.00  0.00    -0.648 OA
ENDBRANCH  30  31
ENDBRANCH  29  30
ENDBRANCH  28  29
BRANCH  28  34
ATOM     34  C   LIG d   1      10.132  20.178   2.185  0.00  0.00     0.132 A 
ATOM     35  N   LIG d   1      11.381  19.734   2.474  0.00  0.00    -0.243 NA
ATOM     36  C   LIG d   1      11.934  20.096   3.653  0.00  0.00     0.119 A 
ATOM     37  C   LIG d   1      11.304  20.888   4.592  0.00  0.00     0.019 A 
ATOM     38  C   LIG d   1      10.028  21.341   4.298  0.00  0.00     0.005 A 
ATOM     39  C   LIG d   1       9.437  20.983   3.087  0.00  0.00     0.051 A 
ENDBRANCH  28  34
ENDBRANCH   6  26
TORSDOF 10
ENDMDL
