MODEL 1
REMARK VINA RESULT:      -8.8      0.000      0.000
REMARK  11 active torsions:
REMARK  status: ('A' for Active; 'I' for Inactive)
REMARK    1  A    between atoms: O_2  and  C_17 
REMARK    2  A    between atoms: O_2  and  C_19 
REMARK    3  A    between atoms: O_3  and  C_13 
REMARK    4  A    between atoms: O_4  and  C_14 
REMARK    5  A    between atoms: O_5  and  C_15 
REMARK    6  A    between atoms: O_6  and  C_18 
REMARK    7  A    between atoms: O_8  and  C_21 
REMARK    8  A    between atoms: O_11  and  C_30 
REMARK    9  A    between atoms: O_12  and  C_33 
REMARK   10  A    between atoms: C_16  and  C_18 
REMARK   11  A    between atoms: C_22  and  C_25 
ROOT
ATOM      1  C   UNK d   1       8.206  -0.263  23.617  0.00  0.00     0.106 A 
ATOM      2  C   UNK d   1       7.544  -1.380  24.164  0.00  0.00     0.054 A 
ATOM      3  C   UNK d   1       9.598  -0.314  23.427  0.00  0.00     0.101 A 
ATOM      4  C   UNK d   1       8.236  -2.534  24.581  0.00  0.00     0.001 A 
ATOM      5  C   UNK d   1      10.295  -1.460  23.813  0.00  0.00     0.040 A 
ATOM      6  C   UNK d   1       9.624  -2.545  24.389  0.00  0.00     0.017 A 
ENDROOT
BRANCH   1   7
ATOM      7  O   UNK d   1       7.586   0.911  23.253  0.00  0.00    -0.315 OA
BRANCH   7   8
ATOM      8  C   UNK d   1       6.508   0.838  22.316  0.00  0.00     0.299 C 
ATOM      9  O   UNK d   1       7.029   0.594  21.007  0.00  0.00    -0.340 OA
ATOM     10  C   UNK d   1       6.033   0.440  20.005  0.00  0.00     0.253 C 
ATOM     11  C   UNK d   1       5.188   1.711  19.889  0.00  0.00     0.189 C 
ATOM     12  C   UNK d   1       4.623   2.089  21.260  0.00  0.00     0.183 C 
ATOM     13  C   UNK d   1       5.723   2.168  22.323  0.00  0.00     0.205 C 
BRANCH  10  14
ATOM     14  C   UNK d   1       6.671   0.128  18.640  0.00  0.00     0.172 C 
ATOM     15  O   UNK d   1       7.810   0.418  18.311  0.00  0.00    -0.648 OA
BRANCH  14  16
ATOM     16  O   UNK d   1       5.853  -0.574  17.811  0.00  0.00    -0.774 OA
ATOM     17  H   UNK d   1       5.467  -1.369  18.249  0.00  0.00     0.167 HD
ENDBRANCH  14  16
ENDBRANCH  10  14
BRANCH  11  18
ATOM     18  O   UNK d   1       4.089   1.489  18.982  0.00  0.00    -0.390 OA
ATOM     19  H   UNK d   1       3.866   0.538  19.070  0.00  0.00     0.210 HD
ENDBRANCH  11  18
BRANCH  12  20
ATOM     20  O   UNK d   1       3.940   3.349  21.162  0.00  0.00    -0.390 OA
ATOM     21  H   UNK d   1       4.546   3.972  20.719  0.00  0.00     0.210 HD
ENDBRANCH  12  20
BRANCH  13  22
ATOM     22  O   UNK d   1       5.084   2.400  23.589  0.00  0.00    -0.388 OA
ATOM     23  H   UNK d   1       5.806   2.449  24.244  0.00  0.00     0.210 HD
ENDBRANCH  13  22
ENDBRANCH   7   8
ENDBRANCH   1   7
BRANCH   3  24
ATOM     24  O   UNK d   1      10.189   0.791  22.867  0.00  0.00    -0.353 OA
ATOM     25  C   UNK d   1      10.849   1.692  23.750  0.00  0.00     0.210 C 
ENDBRANCH   3  24
BRANCH   4  26
ATOM     26  C   UNK d   1       7.505  -3.673  25.214  0.00  0.00     0.090 A 
ATOM     27  O   UNK d   1       6.556  -4.282  24.398  0.00  0.00    -0.309 OA
ATOM     28  C   UNK d   1       5.828  -5.338  24.893  0.00  0.00     0.095 A 
ATOM     29  C   UNK d   1       5.972  -5.832  26.191  0.00  0.00     0.081 A 
ATOM     30  C   UNK d   1       4.906  -5.917  24.019  0.00  0.00     0.075 A 
ATOM     31  C   UNK d   1       6.962  -5.175  27.066  0.00  0.00     0.190 A 
ATOM     32  C   UNK d   1       5.183  -6.915  26.608  0.00  0.00     0.085 A 
ATOM     33  O   UNK d   1       7.178  -5.484  28.231  0.00  0.00    -0.287 OA
ATOM     34  C   UNK d   1       7.728  -4.066  26.476  0.00  0.00     0.094 A 
ATOM     35  C   UNK d   1       4.260  -7.498  25.736  0.00  0.00     0.074 A 
ATOM     36  C   UNK d   1       4.130  -6.989  24.447  0.00  0.00     0.071 A 
BRANCH  32  37
ATOM     37  O   UNK d   1       5.302  -7.419  27.872  0.00  0.00    -0.360 OA
ATOM     38  H   UNK d   1       5.185  -6.724  28.537  0.00  0.00     0.217 HD
ENDBRANCH  32  37
BRANCH  36  39
ATOM     39  O   UNK d   1       3.242  -7.523  23.561  0.00  0.00    -0.361 OA
ATOM     40  H   UNK d   1       2.405  -7.031  23.610  0.00  0.00     0.217 HD
ENDBRANCH  36  39
ENDBRANCH   4  26
TORSDOF 11
ENDMDL
MODEL 2
REMARK VINA RESULT:      -8.7      1.137      2.616
REMARK  11 active torsions:
REMARK  status: ('A' for Active; 'I' for Inactive)
REMARK    1  A    between atoms: O_2  and  C_17 
REMARK    2  A    between atoms: O_2  and  C_19 
REMARK    3  A    between atoms: O_3  and  C_13 
REMARK    4  A    between atoms: O_4  and  C_14 
REMARK    5  A    between atoms: O_5  and  C_15 
REMARK    6  A    between atoms: O_6  and  C_18 
REMARK    7  A    between atoms: O_8  and  C_21 
REMARK    8  A    between atoms: O_11  and  C_30 
REMARK    9  A    between atoms: O_12  and  C_33 
REMARK   10  A    between atoms: C_16  and  C_18 
REMARK   11  A    between atoms: C_22  and  C_25 
ROOT
ATOM      1  C   UNK d   1       9.258  -0.447  22.516  0.00  0.00     0.106 A 
ATOM      2  C   UNK d   1       8.635  -1.591  23.053  0.00  0.00     0.054 A 
ATOM      3  C   UNK d   1       9.911   0.450  23.378  0.00  0.00     0.101 A 
ATOM      4  C   UNK d   1       8.594  -1.842  24.438  0.00  0.00     0.001 A 
ATOM      5  C   UNK d   1       9.898   0.203  24.752  0.00  0.00     0.040 A 
ATOM      6  C   UNK d   1       9.242  -0.919  25.270  0.00  0.00     0.017 A 
ENDROOT
BRANCH   1   7
ATOM      7  O   UNK d   1       9.273  -0.123  21.177  0.00  0.00    -0.315 OA
BRANCH   7   8
ATOM      8  C   UNK d   1       8.115   0.514  20.628  0.00  0.00     0.299 C 
ATOM      9  O   UNK d   1       7.072   0.532  21.606  0.00  0.00    -0.340 OA
ATOM     10  C   UNK d   1       5.891   1.201  21.182  0.00  0.00     0.253 C 
ATOM     11  C   UNK d   1       5.299   0.516  19.949  0.00  0.00     0.189 C 
ATOM     12  C   UNK d   1       6.362   0.400  18.855  0.00  0.00     0.183 C 
ATOM     13  C   UNK d   1       7.643  -0.259  19.377  0.00  0.00     0.205 C 
BRANCH  10  14
ATOM     14  C   UNK d   1       4.840   1.223  22.306  0.00  0.00     0.172 C 
ATOM     15  O   UNK d   1       3.723   1.707  22.217  0.00  0.00    -0.648 OA
BRANCH  14  16
ATOM     16  O   UNK d   1       5.248   0.588  23.437  0.00  0.00    -0.774 OA
ATOM     17  H   UNK d   1       6.093   0.094  23.306  0.00  0.00     0.167 HD
ENDBRANCH  14  16
ENDBRANCH  10  14
BRANCH  11  18
ATOM     18  O   UNK d   1       4.195   1.291  19.440  0.00  0.00    -0.390 OA
ATOM     19  H   UNK d   1       3.538   1.318  20.168  0.00  0.00     0.210 HD
ENDBRANCH  11  18
BRANCH  12  20
ATOM     20  O   UNK d   1       5.832  -0.357  17.754  0.00  0.00    -0.390 OA
ATOM     21  H   UNK d   1       6.079  -1.289  17.900  0.00  0.00     0.210 HD
ENDBRANCH  12  20
BRANCH  13  22
ATOM     22  O   UNK d   1       8.617  -0.207  18.322  0.00  0.00    -0.388 OA
ATOM     23  H   UNK d   1       8.404  -0.953  17.730  0.00  0.00     0.210 HD
ENDBRANCH  13  22
ENDBRANCH   7   8
ENDBRANCH   1   7
BRANCH   3  24
ATOM     24  O   UNK d   1      10.523   1.534  22.799  0.00  0.00    -0.353 OA
ATOM     25  C   UNK d   1      10.886   2.610  23.657  0.00  0.00     0.210 C 
ENDBRANCH   3  24
BRANCH   4  26
ATOM     26  C   UNK d   1       7.868  -3.033  24.975  0.00  0.00     0.090 A 
ATOM     27  O   UNK d   1       6.930  -3.583  24.107  0.00  0.00    -0.309 OA
ATOM     28  C   UNK d   1       6.207  -4.680  24.511  0.00  0.00     0.095 A 
ATOM     29  C   UNK d   1       6.346  -5.274  25.767  0.00  0.00     0.081 A 
ATOM     30  C   UNK d   1       5.295  -5.196  23.588  0.00  0.00     0.075 A 
ATOM     31  C   UNK d   1       7.326  -4.682  26.698  0.00  0.00     0.190 A 
ATOM     32  C   UNK d   1       5.564  -6.393  26.092  0.00  0.00     0.085 A 
ATOM     33  O   UNK d   1       7.537  -5.080  27.836  0.00  0.00    -0.287 OA
ATOM     34  C   UNK d   1       8.086  -3.523  26.203  0.00  0.00     0.094 A 
ATOM     35  C   UNK d   1       4.651  -6.912  25.170  0.00  0.00     0.074 A 
ATOM     36  C   UNK d   1       4.526  -6.304  23.924  0.00  0.00     0.071 A 
BRANCH  32  37
ATOM     37  O   UNK d   1       5.679  -6.994  27.313  0.00  0.00    -0.360 OA
ATOM     38  H   UNK d   1       6.554  -6.838  27.698  0.00  0.00     0.217 HD
ENDBRANCH  32  37
BRANCH  36  39
ATOM     39  O   UNK d   1       3.648  -6.773  22.992  0.00  0.00    -0.361 OA
ATOM     40  H   UNK d   1       2.752  -6.781  23.371  0.00  0.00     0.217 HD
ENDBRANCH  36  39
ENDBRANCH   4  26
TORSDOF 11
ENDMDL
MODEL 3
REMARK VINA RESULT:      -7.4     17.203     19.997
REMARK  11 active torsions:
REMARK  status: ('A' for Active; 'I' for Inactive)
REMARK    1  A    between atoms: O_2  and  C_17 
REMARK    2  A    between atoms: O_2  and  C_19 
REMARK    3  A    between atoms: O_3  and  C_13 
REMARK    4  A    between atoms: O_4  and  C_14 
REMARK    5  A    between atoms: O_5  and  C_15 
REMARK    6  A    between atoms: O_6  and  C_18 
REMARK    7  A    between atoms: O_8  and  C_21 
REMARK    8  A    between atoms: O_11  and  C_30 
REMARK    9  A    between atoms: O_12  and  C_33 
REMARK   10  A    between atoms: C_16  and  C_18 
REMARK   11  A    between atoms: C_22  and  C_25 
ROOT
ATOM      1  C   UNK d   1      25.335  -4.434  21.497  0.00  0.00     0.106 A 
ATOM      2  C   UNK d   1      25.229  -3.422  20.522  0.00  0.00     0.054 A 
ATOM      3  C   UNK d   1      25.162  -5.776  21.118  0.00  0.00     0.101 A 
ATOM      4  C   UNK d   1      24.899  -3.703  19.183  0.00  0.00     0.001 A 
ATOM      5  C   UNK d   1      24.857  -6.072  19.788  0.00  0.00     0.040 A 
ATOM      6  C   UNK d   1      24.719  -5.050  18.842  0.00  0.00     0.017 A 
ENDROOT
BRANCH   1   7
ATOM      7  O   UNK d   1      25.593  -4.208  22.832  0.00  0.00    -0.315 OA
BRANCH   7   8
ATOM      8  C   UNK d   1      24.547  -3.649  23.632  0.00  0.00     0.299 C 
ATOM      9  O   UNK d   1      24.947  -2.362  24.110  0.00  0.00    -0.340 OA
ATOM     10  C   UNK d   1      23.950  -1.689  24.868  0.00  0.00     0.253 C 
ATOM     11  C   UNK d   1      23.581  -2.503  26.111  0.00  0.00     0.189 C 
ATOM     12  C   UNK d   1      23.186  -3.924  25.707  0.00  0.00     0.183 C 
ATOM     13  C   UNK d   1      24.256  -4.581  24.828  0.00  0.00     0.205 C 
BRANCH  10  14
ATOM     14  C   UNK d   1      24.437  -0.295  25.299  0.00  0.00     0.172 C 
ATOM     15  O   UNK d   1      25.604   0.059  25.353  0.00  0.00    -0.648 OA
BRANCH  14  16
ATOM     16  O   UNK d   1      23.422   0.568  25.574  0.00  0.00    -0.774 OA
ATOM     17  H   UNK d   1      23.704   1.511  25.513  0.00  0.00     0.167 HD
ENDBRANCH  14  16
ENDBRANCH  10  14
BRANCH  11  18
ATOM     18  O   UNK d   1      22.466  -1.888  26.787  0.00  0.00    -0.390 OA
ATOM     19  H   UNK d   1      22.389  -0.990  26.399  0.00  0.00     0.210 HD
ENDBRANCH  11  18
BRANCH  12  20
ATOM     20  O   UNK d   1      22.966  -4.712  26.888  0.00  0.00    -0.390 OA
ATOM     21  H   UNK d   1      22.309  -4.239  27.432  0.00  0.00     0.210 HD
ENDBRANCH  12  20
BRANCH  13  22
ATOM     22  O   UNK d   1      23.741  -5.852  24.398  0.00  0.00    -0.388 OA
ATOM     23  H   UNK d   1      23.080  -5.649  23.709  0.00  0.00     0.210 HD
ENDBRANCH  13  22
ENDBRANCH   7   8
ENDBRANCH   1   7
BRANCH   3  24
ATOM     24  O   UNK d   1      25.300  -6.723  22.102  0.00  0.00    -0.353 OA
ATOM     25  C   UNK d   1      25.609  -8.049  21.689  0.00  0.00     0.210 C 
ENDBRANCH   3  24
BRANCH   4  26
ATOM     26  C   UNK d   1      24.734  -2.596  18.191  0.00  0.00     0.090 A 
ATOM     27  O   UNK d   1      24.870  -1.316  18.720  0.00  0.00    -0.309 OA
ATOM     28  C   UNK d   1      24.731  -0.231  17.887  0.00  0.00     0.095 A 
ATOM     29  C   UNK d   1      24.439  -0.337  16.526  0.00  0.00     0.081 A 
ATOM     30  C   UNK d   1      24.897   1.025  18.474  0.00  0.00     0.075 A 
ATOM     31  C   UNK d   1      24.274  -1.692  15.966  0.00  0.00     0.190 A 
ATOM     32  C   UNK d   1      24.315   0.828  15.754  0.00  0.00     0.085 A 
ATOM     33  O   UNK d   1      23.995  -1.937  14.799  0.00  0.00    -0.287 OA
ATOM     34  C   UNK d   1      24.457  -2.816  16.899  0.00  0.00     0.094 A 
ATOM     35  C   UNK d   1      24.482   2.087  16.338  0.00  0.00     0.074 A 
ATOM     36  C   UNK d   1      24.770   2.171  17.697  0.00  0.00     0.071 A 
BRANCH  32  37
ATOM     37  O   UNK d   1      24.030   0.755  14.420  0.00  0.00    -0.360 OA
ATOM     38  H   UNK d   1      24.488   0.008  14.006  0.00  0.00     0.217 HD
ENDBRANCH  32  37
BRANCH  36  39
ATOM     39  O   UNK d   1      24.939   3.376  18.312  0.00  0.00    -0.361 OA
ATOM     40  H   UNK d   1      24.495   3.361  19.177  0.00  0.00     0.217 HD
ENDBRANCH  36  39
ENDBRANCH   4  26
TORSDOF 11
ENDMDL
MODEL 4
REMARK VINA RESULT:      -7.4      4.575      8.600
REMARK  11 active torsions:
REMARK  status: ('A' for Active; 'I' for Inactive)
REMARK    1  A    between atoms: O_2  and  C_17 
REMARK    2  A    between atoms: O_2  and  C_19 
REMARK    3  A    between atoms: O_3  and  C_13 
REMARK    4  A    between atoms: O_4  and  C_14 
REMARK    5  A    between atoms: O_5  and  C_15 
REMARK    6  A    between atoms: O_6  and  C_18 
REMARK    7  A    between atoms: O_8  and  C_21 
REMARK    8  A    between atoms: O_11  and  C_30 
REMARK    9  A    between atoms: O_12  and  C_33 
REMARK   10  A    between atoms: C_16  and  C_18 
REMARK   11  A    between atoms: C_22  and  C_25 
ROOT
ATOM      1  C   UNK d   1       4.049  -6.969  26.457  0.00  0.00     0.106 A 
ATOM      2  C   UNK d   1       3.442  -7.078  25.191  0.00  0.00     0.054 A 
ATOM      3  C   UNK d   1       3.240  -6.885  27.604  0.00  0.00     0.101 A 
ATOM      4  C   UNK d   1       2.044  -7.049  25.024  0.00  0.00     0.001 A 
ATOM      5  C   UNK d   1       1.852  -6.879  27.456  0.00  0.00     0.040 A 
ATOM      6  C   UNK d   1       1.268  -6.949  26.187  0.00  0.00     0.017 A 
ENDROOT
BRANCH   1   7
ATOM      7  O   UNK d   1       5.410  -6.929  26.669  0.00  0.00    -0.315 OA
BRANCH   7   8
ATOM      8  C   UNK d   1       6.115  -5.749  26.274  0.00  0.00     0.299 C 
ATOM      9  O   UNK d   1       6.420  -5.820  24.878  0.00  0.00    -0.340 OA
ATOM     10  C   UNK d   1       7.070  -4.663  24.367  0.00  0.00     0.253 C 
ATOM     11  C   UNK d   1       8.407  -4.440  25.078  0.00  0.00     0.189 C 
ATOM     12  C   UNK d   1       8.193  -4.402  26.592  0.00  0.00     0.183 C 
ATOM     13  C   UNK d   1       7.423  -5.631  27.086  0.00  0.00     0.205 C 
BRANCH  10  14
ATOM     14  C   UNK d   1       7.314  -4.796  22.853  0.00  0.00     0.172 C 
ATOM     15  O   UNK d   1       7.436  -3.864  22.074  0.00  0.00    -0.648 OA
BRANCH  14  16
ATOM     16  O   UNK d   1       7.444  -6.085  22.441  0.00  0.00    -0.774 OA
ATOM     17  H   UNK d   1       6.599  -6.590  22.513  0.00  0.00     0.167 HD
ENDBRANCH  14  16
ENDBRANCH  10  14
BRANCH  11  18
ATOM     18  O   UNK d   1       8.981  -3.186  24.660  0.00  0.00    -0.390 OA
ATOM     19  H   UNK d   1       9.942  -3.356  24.567  0.00  0.00     0.210 HD
ENDBRANCH  11  18
BRANCH  12  20
ATOM     20  O   UNK d   1       9.468  -4.320  27.251  0.00  0.00    -0.390 OA
ATOM     21  H   UNK d   1       9.299  -4.039  28.169  0.00  0.00     0.210 HD
ENDBRANCH  12  20
BRANCH  13  22
ATOM     22  O   UNK d   1       7.163  -5.442  28.487  0.00  0.00    -0.388 OA
ATOM     23  H   UNK d   1       6.655  -6.227  28.769  0.00  0.00     0.210 HD
ENDBRANCH  13  22
ENDBRANCH   7   8
ENDBRANCH   1   7
BRANCH   3  24
ATOM     24  O   UNK d   1       3.884  -6.807  28.814  0.00  0.00    -0.353 OA
ATOM     25  C   UNK d   1       3.760  -5.588  29.538  0.00  0.00     0.210 C 
ENDBRANCH   3  24
BRANCH   4  26
ATOM     26  C   UNK d   1       1.438  -7.102  23.659  0.00  0.00     0.090 A 
ATOM     27  O   UNK d   1       0.404  -6.198  23.445  0.00  0.00    -0.309 OA
ATOM     28  C   UNK d   1      -0.220  -6.173  22.220  0.00  0.00     0.095 A 
ATOM     29  C   UNK d   1       0.115  -7.027  21.167  0.00  0.00     0.081 A 
ATOM     30  C   UNK d   1      -1.238  -5.230  22.062  0.00  0.00     0.075 A 
ATOM     31  C   UNK d   1       1.198  -8.002  21.397  0.00  0.00     0.190 A 
ATOM     32  C   UNK d   1      -0.579  -6.928  19.951  0.00  0.00     0.085 A 
ATOM     33  O   UNK d   1       1.582  -8.826  20.577  0.00  0.00    -0.287 OA
ATOM     34  C   UNK d   1       1.845  -7.967  22.719  0.00  0.00     0.094 A 
ATOM     35  C   UNK d   1      -1.598  -5.985  19.790  0.00  0.00     0.074 A 
ATOM     36  C   UNK d   1      -1.918  -5.145  20.852  0.00  0.00     0.071 A 
BRANCH  32  37
ATOM     37  O   UNK d   1      -0.272  -7.751  18.905  0.00  0.00    -0.360 OA
ATOM     38  H   UNK d   1      -0.783  -7.517  18.115  0.00  0.00     0.217 HD
ENDBRANCH  32  37
BRANCH  36  39
ATOM     39  O   UNK d   1      -2.905  -4.211  20.743  0.00  0.00    -0.361 OA
ATOM     40  H   UNK d   1      -3.129  -4.088  19.805  0.00  0.00     0.217 HD
ENDBRANCH  36  39
ENDBRANCH   4  26
TORSDOF 11
ENDMDL
MODEL 5
REMARK VINA RESULT:      -7.3     25.149     30.916
REMARK  11 active torsions:
REMARK  status: ('A' for Active; 'I' for Inactive)
REMARK    1  A    between atoms: O_2  and  C_17 
REMARK    2  A    between atoms: O_2  and  C_19 
REMARK    3  A    between atoms: O_3  and  C_13 
REMARK    4  A    between atoms: O_4  and  C_14 
REMARK    5  A    between atoms: O_5  and  C_15 
REMARK    6  A    between atoms: O_6  and  C_18 
REMARK    7  A    between atoms: O_8  and  C_21 
REMARK    8  A    between atoms: O_11  and  C_30 
REMARK    9  A    between atoms: O_12  and  C_33 
REMARK   10  A    between atoms: C_16  and  C_18 
REMARK   11  A    between atoms: C_22  and  C_25 
ROOT
ATOM      1  C   UNK d   1      10.376  18.329   3.590  0.00  0.00     0.106 A 
ATOM      2  C   UNK d   1       9.885  19.208   2.605  0.00  0.00     0.054 A 
ATOM      3  C   UNK d   1      10.802  18.849   4.825  0.00  0.00     0.101 A 
ATOM      4  C   UNK d   1       9.856  20.603   2.791  0.00  0.00     0.001 A 
ATOM      5  C   UNK d   1      10.757  20.228   5.033  0.00  0.00     0.040 A 
ATOM      6  C   UNK d   1      10.301  21.088   4.028  0.00  0.00     0.017 A 
ENDROOT
BRANCH   1   7
ATOM      7  O   UNK d   1      10.485  16.965   3.435  0.00  0.00    -0.315 OA
BRANCH   7   8
ATOM      8  C   UNK d   1       9.285  16.215   3.224  0.00  0.00     0.299 C 
ATOM      9  O   UNK d   1       9.076  15.329   4.326  0.00  0.00    -0.340 OA
ATOM     10  C   UNK d   1       7.871  14.578   4.246  0.00  0.00     0.253 C 
ATOM     11  C   UNK d   1       7.870  13.698   2.993  0.00  0.00     0.189 C 
ATOM     12  C   UNK d   1       8.141  14.553   1.754  0.00  0.00     0.183 C 
ATOM     13  C   UNK d   1       9.407  15.401   1.917  0.00  0.00     0.205 C 
BRANCH  10  14
ATOM     14  C   UNK d   1       7.694  13.691   5.491  0.00  0.00     0.172 C 
ATOM     15  O   UNK d   1       6.777  12.907   5.673  0.00  0.00    -0.648 OA
BRANCH  14  16
ATOM     16  O   UNK d   1       8.709  13.814   6.387  0.00  0.00    -0.774 OA
ATOM     17  H   UNK d   1       8.960  14.755   6.544  0.00  0.00     0.167 HD
ENDBRANCH  14  16
ENDBRANCH  10  14
BRANCH  11  18
ATOM     18  O   UNK d   1       6.585  13.061   2.844  0.00  0.00    -0.390 OA
ATOM     19  H   UNK d   1       6.238  13.372   1.980  0.00  0.00     0.210 HD
ENDBRANCH  11  18
BRANCH  12  20
ATOM     20  O   UNK d   1       8.263  13.700   0.604  0.00  0.00    -0.390 OA
ATOM     21  H   UNK d   1       9.215  13.605   0.416  0.00  0.00     0.210 HD
ENDBRANCH  12  20
BRANCH  13  22
ATOM     22  O   UNK d   1       9.504  16.256   0.766  0.00  0.00    -0.388 OA
ATOM     23  H   UNK d   1       9.456  15.662  -0.008  0.00  0.00     0.210 HD
ENDBRANCH  13  22
ENDBRANCH   7   8
ENDBRANCH   1   7
BRANCH   3  24
ATOM     24  O   UNK d   1      11.248  17.946   5.758  0.00  0.00    -0.353 OA
ATOM     25  C   UNK d   1      10.403  17.697   6.876  0.00  0.00     0.210 C 
ENDBRANCH   3  24
BRANCH   4  26
ATOM     26  C   UNK d   1       9.386  21.508   1.697  0.00  0.00     0.090 A 
ATOM     27  O   UNK d   1       8.074  21.294   1.288  0.00  0.00    -0.309 OA
ATOM     28  C   UNK d   1       7.551  22.074   0.284  0.00  0.00     0.095 A 
ATOM     29  C   UNK d   1       8.275  23.070  -0.374  0.00  0.00     0.081 A 
ATOM     30  C   UNK d   1       6.223  21.822  -0.068  0.00  0.00     0.075 A 
ATOM     31  C   UNK d   1       9.674  23.286   0.043  0.00  0.00     0.190 A 
ATOM     32  C   UNK d   1       7.657  23.817  -1.389  0.00  0.00     0.085 A 
ATOM     33  O   UNK d   1      10.434  24.105  -0.458  0.00  0.00    -0.287 OA
ATOM     34  C   UNK d   1      10.172  22.438   1.138  0.00  0.00     0.094 A 
ATOM     35  C   UNK d   1       6.328  23.568  -1.743  0.00  0.00     0.074 A 
ATOM     36  C   UNK d   1       5.624  22.569  -1.076  0.00  0.00     0.071 A 
BRANCH  32  37
ATOM     37  O   UNK d   1       8.341  24.797  -2.049  0.00  0.00    -0.360 OA
ATOM     38  H   UNK d   1       8.534  25.544  -1.462  0.00  0.00     0.217 HD
ENDBRANCH  32  37
BRANCH  36  39
ATOM     39  O   UNK d   1       4.327  22.288  -1.388  0.00  0.00    -0.361 OA
ATOM     40  H   UNK d   1       4.213  21.325  -1.452  0.00  0.00     0.217 HD
ENDBRANCH  36  39
ENDBRANCH   4  26
TORSDOF 11
ENDMDL
MODEL 6
REMARK VINA RESULT:      -7.3      4.485      8.877
REMARK  11 active torsions:
REMARK  status: ('A' for Active; 'I' for Inactive)
REMARK    1  A    between atoms: O_2  and  C_17 
REMARK    2  A    between atoms: O_2  and  C_19 
REMARK    3  A    between atoms: O_3  and  C_13 
REMARK    4  A    between atoms: O_4  and  C_14 
REMARK    5  A    between atoms: O_5  and  C_15 
REMARK    6  A    between atoms: O_6  and  C_18 
REMARK    7  A    between atoms: O_8  and  C_21 
REMARK    8  A    between atoms: O_11  and  C_30 
REMARK    9  A    between atoms: O_12  and  C_33 
REMARK   10  A    between atoms: C_16  and  C_18 
REMARK   11  A    between atoms: C_22  and  C_25 
ROOT
ATOM      1  C   UNK d   1       9.224   0.983  22.291  0.00  0.00     0.106 A 
ATOM      2  C   UNK d   1       8.917   2.305  22.669  0.00  0.00     0.054 A 
ATOM      3  C   UNK d   1      10.283   0.314  22.927  0.00  0.00     0.101 A 
ATOM      4  C   UNK d   1       9.672   3.006  23.628  0.00  0.00     0.001 A 
ATOM      5  C   UNK d   1      11.027   0.988  23.897  0.00  0.00     0.040 A 
ATOM      6  C   UNK d   1      10.730   2.314  24.232  0.00  0.00     0.017 A 
ENDROOT
BRANCH   1   7
ATOM      7  O   UNK d   1       8.557   0.276  21.314  0.00  0.00    -0.315 OA
BRANCH   7   8
ATOM      8  C   UNK d   1       7.515   0.942  20.596  0.00  0.00     0.299 C 
ATOM      9  O   UNK d   1       6.366   1.076  21.438  0.00  0.00    -0.340 OA
ATOM     10  C   UNK d   1       5.288   1.784  20.839  0.00  0.00     0.253 C 
ATOM     11  C   UNK d   1       4.804   1.060  19.581  0.00  0.00     0.189 C 
ATOM     12  C   UNK d   1       5.979   0.820  18.632  0.00  0.00     0.183 C 
ATOM     13  C   UNK d   1       7.146   0.124  19.340  0.00  0.00     0.205 C 
BRANCH  10  14
ATOM     14  C   UNK d   1       4.115   1.931  21.825  0.00  0.00     0.172 C 
ATOM     15  O   UNK d   1       3.208   2.742  21.725  0.00  0.00    -0.648 OA
BRANCH  14  16
ATOM     16  O   UNK d   1       4.137   1.013  22.828  0.00  0.00    -0.774 OA
ATOM     17  H   UNK d   1       3.755   1.364  23.667  0.00  0.00     0.167 HD
ENDBRANCH  14  16
ENDBRANCH  10  14
BRANCH  11  18
ATOM     18  O   UNK d   1       3.818   1.863  18.902  0.00  0.00    -0.390 OA
ATOM     19  H   UNK d   1       3.756   2.694  19.419  0.00  0.00     0.210 HD
ENDBRANCH  11  18
BRANCH  12  20
ATOM     20  O   UNK d   1       5.537   0.030  17.516  0.00  0.00    -0.390 OA
ATOM     21  H   UNK d   1       6.314  -0.455  17.181  0.00  0.00     0.210 HD
ENDBRANCH  12  20
BRANCH  13  22
ATOM     22  O   UNK d   1       8.239   0.059  18.409  0.00  0.00    -0.388 OA
ATOM     23  H   UNK d   1       8.480   0.986  18.221  0.00  0.00     0.210 HD
ENDBRANCH  13  22
ENDBRANCH   7   8
ENDBRANCH   1   7
BRANCH   3  24
ATOM     24  O   UNK d   1      10.524  -0.980  22.538  0.00  0.00    -0.353 OA
ATOM     25  C   UNK d   1      10.177  -2.010  23.457  0.00  0.00     0.210 C 
ENDBRANCH   3  24
BRANCH   4  26
ATOM     26  C   UNK d   1       9.353   4.429  23.957  0.00  0.00     0.090 A 
ATOM     27  O   UNK d   1       8.241   4.944  23.298  0.00  0.00    -0.309 OA
ATOM     28  C   UNK d   1       7.870   6.246  23.531  0.00  0.00     0.095 A 
ATOM     29  C   UNK d   1       8.563   7.104  24.388  0.00  0.00     0.081 A 
ATOM     30  C   UNK d   1       6.735   6.698  22.853  0.00  0.00     0.075 A 
ATOM     31  C   UNK d   1       9.755   6.568  25.073  0.00  0.00     0.190 A 
ATOM     32  C   UNK d   1       8.109   8.420  24.563  0.00  0.00     0.085 A 
ATOM     33  O   UNK d   1      10.471   7.208  25.831  0.00  0.00    -0.287 OA
ATOM     34  C   UNK d   1      10.091   5.160  24.803  0.00  0.00     0.094 A 
ATOM     35  C   UNK d   1       6.973   8.874  23.887  0.00  0.00     0.074 A 
ATOM     36  C   UNK d   1       6.298   8.005  23.036  0.00  0.00     0.071 A 
BRANCH  32  37
ATOM     37  O   UNK d   1       8.767   9.280  25.395  0.00  0.00    -0.360 OA
ATOM     38  H   UNK d   1       9.291   9.921  24.891  0.00  0.00     0.217 HD
ENDBRANCH  32  37
BRANCH  36  39
ATOM     39  O   UNK d   1       5.186   8.403  22.353  0.00  0.00    -0.361 OA
ATOM     40  H   UNK d   1       5.176   9.374  22.294  0.00  0.00     0.217 HD
ENDBRANCH  36  39
ENDBRANCH   4  26
TORSDOF 11
ENDMDL
MODEL 7
REMARK VINA RESULT:      -7.3     24.804     30.637
REMARK  11 active torsions:
REMARK  status: ('A' for Active; 'I' for Inactive)
REMARK    1  A    between atoms: O_2  and  C_17 
REMARK    2  A    between atoms: O_2  and  C_19 
REMARK    3  A    between atoms: O_3  and  C_13 
REMARK    4  A    between atoms: O_4  and  C_14 
REMARK    5  A    between atoms: O_5  and  C_15 
REMARK    6  A    between atoms: O_6  and  C_18 
REMARK    7  A    between atoms: O_8  and  C_21 
REMARK    8  A    between atoms: O_11  and  C_30 
REMARK    9  A    between atoms: O_12  and  C_33 
REMARK   10  A    between atoms: C_16  and  C_18 
REMARK   11  A    between atoms: C_22  and  C_25 
ROOT
ATOM      1  C   UNK d   1       9.546  16.685   3.018  0.00  0.00     0.106 A 
ATOM      2  C   UNK d   1       9.711  17.941   2.404  0.00  0.00     0.054 A 
ATOM      3  C   UNK d   1       8.460  15.874   2.645  0.00  0.00     0.101 A 
ATOM      4  C   UNK d   1       8.792  18.444   1.462  0.00  0.00     0.001 A 
ATOM      5  C   UNK d   1       7.553  16.348   1.696  0.00  0.00     0.040 A 
ATOM      6  C   UNK d   1       7.714  17.615   1.124  0.00  0.00     0.017 A 
ENDROOT
BRANCH   1   7
ATOM      7  O   UNK d   1      10.380  16.175   3.990  0.00  0.00    -0.315 OA
BRANCH   7   8
ATOM      8  C   UNK d   1      10.191  16.620   5.336  0.00  0.00     0.299 C 
ATOM      9  O   UNK d   1      11.264  17.489   5.707  0.00  0.00    -0.340 OA
ATOM     10  C   UNK d   1      11.141  18.040   7.012  0.00  0.00     0.253 C 
ATOM     11  C   UNK d   1      11.120  16.928   8.063  0.00  0.00     0.189 C 
ATOM     12  C   UNK d   1      10.030  15.909   7.724  0.00  0.00     0.183 C 
ATOM     13  C   UNK d   1      10.159  15.401   6.284  0.00  0.00     0.205 C 
BRANCH  10  14
ATOM     14  C   UNK d   1      12.303  19.003   7.313  0.00  0.00     0.172 C 
ATOM     15  O   UNK d   1      12.364  19.757   8.270  0.00  0.00    -0.648 OA
BRANCH  14  16
ATOM     16  O   UNK d   1      13.326  18.905   6.422  0.00  0.00    -0.774 OA
ATOM     17  H   UNK d   1      14.109  19.444   6.688  0.00  0.00     0.167 HD
ENDBRANCH  14  16
ENDBRANCH  10  14
BRANCH  11  18
ATOM     18  O   UNK d   1      10.842  17.487   9.362  0.00  0.00    -0.390 OA
ATOM     19  H   UNK d   1      10.482  16.745   9.894  0.00  0.00     0.210 HD
ENDBRANCH  11  18
BRANCH  12  20
ATOM     20  O   UNK d   1      10.105  14.808   8.644  0.00  0.00    -0.390 OA
ATOM     21  H   UNK d   1      10.903  14.941   9.188  0.00  0.00     0.210 HD
ENDBRANCH  12  20
BRANCH  13  22
ATOM     22  O   UNK d   1       9.026  14.555   6.022  0.00  0.00    -0.388 OA
ATOM     23  H   UNK d   1       8.457  15.059   5.410  0.00  0.00     0.210 HD
ENDBRANCH  13  22
ENDBRANCH   7   8
ENDBRANCH   1   7
BRANCH   3  24
ATOM     24  O   UNK d   1       8.361  14.649   3.257  0.00  0.00    -0.353 OA
ATOM     25  C   UNK d   1       7.478  13.699   2.670  0.00  0.00     0.210 C 
ENDBRANCH   3  24
BRANCH   4  26
ATOM     26  C   UNK d   1       8.968  19.808   0.879  0.00  0.00     0.090 A 
ATOM     27  O   UNK d   1       7.930  20.227   0.053  0.00  0.00    -0.309 OA
ATOM     28  C   UNK d   1       8.001  21.468  -0.534  0.00  0.00     0.095 A 
ATOM     29  C   UNK d   1       9.079  22.340  -0.364  0.00  0.00     0.081 A 
ATOM     30  C   UNK d   1       6.920  21.836  -1.337  0.00  0.00     0.075 A 
ATOM     31  C   UNK d   1      10.192  21.891   0.495  0.00  0.00     0.190 A 
ATOM     32  C   UNK d   1       9.064  23.588  -1.005  0.00  0.00     0.085 A 
ATOM     33  O   UNK d   1      11.208  22.537   0.715  0.00  0.00    -0.287 OA
ATOM     34  C   UNK d   1      10.049  20.564   1.115  0.00  0.00     0.094 A 
ATOM     35  C   UNK d   1       7.982  23.960  -1.808  0.00  0.00     0.074 A 
ATOM     36  C   UNK d   1       6.919  23.076  -1.966  0.00  0.00     0.071 A 
BRANCH  32  37
ATOM     37  O   UNK d   1      10.104  24.461  -0.856  0.00  0.00    -0.360 OA
ATOM     38  H   UNK d   1       9.820  25.269  -0.404  0.00  0.00     0.217 HD
ENDBRANCH  32  37
BRANCH  36  39
ATOM     39  O   UNK d   1       5.844  23.393  -2.742  0.00  0.00    -0.361 OA
ATOM     40  H   UNK d   1       6.139  23.545  -3.655  0.00  0.00     0.217 HD
ENDBRANCH  36  39
ENDBRANCH   4  26
TORSDOF 11
ENDMDL
MODEL 8
REMARK VINA RESULT:      -7.3     26.231     31.219
REMARK  11 active torsions:
REMARK  status: ('A' for Active; 'I' for Inactive)
REMARK    1  A    between atoms: O_2  and  C_17 
REMARK    2  A    between atoms: O_2  and  C_19 
REMARK    3  A    between atoms: O_3  and  C_13 
REMARK    4  A    between atoms: O_4  and  C_14 
REMARK    5  A    between atoms: O_5  and  C_15 
REMARK    6  A    between atoms: O_6  and  C_18 
REMARK    7  A    between atoms: O_8  and  C_21 
REMARK    8  A    between atoms: O_11  and  C_30 
REMARK    9  A    between atoms: O_12  and  C_33 
REMARK   10  A    between atoms: C_16  and  C_18 
REMARK   11  A    between atoms: C_22  and  C_25 
ROOT
ATOM      1  C   UNK d   1       7.802  20.665  -0.542  0.00  0.00     0.106 A 
ATOM      2  C   UNK d   1       8.004  19.437   0.118  0.00  0.00     0.054 A 
ATOM      3  C   UNK d   1       8.843  21.609  -0.571  0.00  0.00     0.101 A 
ATOM      4  C   UNK d   1       9.198  19.138   0.801  0.00  0.00     0.001 A 
ATOM      5  C   UNK d   1      10.042  21.318   0.082  0.00  0.00     0.040 A 
ATOM      6  C   UNK d   1      10.210  20.108   0.763  0.00  0.00     0.017 A 
ENDROOT
BRANCH   1   7
ATOM      7  O   UNK d   1       6.632  21.031  -1.170  0.00  0.00    -0.315 OA
BRANCH   7   8
ATOM      8  C   UNK d   1       5.856  22.080  -0.584  0.00  0.00     0.299 C 
ATOM      9  O   UNK d   1       4.940  21.526   0.364  0.00  0.00    -0.340 OA
ATOM     10  C   UNK d   1       4.160  22.494   1.053  0.00  0.00     0.253 C 
ATOM     11  C   UNK d   1       3.308  23.296   0.066  0.00  0.00     0.189 C 
ATOM     12  C   UNK d   1       4.196  23.892  -1.027  0.00  0.00     0.183 C 
ATOM     13  C   UNK d   1       5.074  22.824  -1.689  0.00  0.00     0.205 C 
BRANCH  10  14
ATOM     14  C   UNK d   1       3.242  21.822   2.089  0.00  0.00     0.172 C 
ATOM     15  O   UNK d   1       2.836  20.673   2.032  0.00  0.00    -0.648 OA
BRANCH  14  16
ATOM     16  O   UNK d   1       2.950  22.624   3.148  0.00  0.00    -0.774 OA
ATOM     17  H   UNK d   1       2.112  22.363   3.598  0.00  0.00     0.167 HD
ENDBRANCH  14  16
ENDBRANCH  10  14
BRANCH  11  18
ATOM     18  O   UNK d   1       2.641  24.371   0.757  0.00  0.00    -0.390 OA
ATOM     19  H   UNK d   1       1.717  24.360   0.428  0.00  0.00     0.210 HD
ENDBRANCH  11  18
BRANCH  12  20
ATOM     20  O   UNK d   1       3.372  24.534  -2.014  0.00  0.00    -0.390 OA
ATOM     21  H   UNK d   1       2.899  23.830  -2.496  0.00  0.00     0.210 HD
ENDBRANCH  12  20
BRANCH  13  22
ATOM     22  O   UNK d   1       5.956  23.496  -2.603  0.00  0.00    -0.388 OA
ATOM     23  H   UNK d   1       5.555  23.383  -3.486  0.00  0.00     0.210 HD
ENDBRANCH  13  22
ENDBRANCH   7   8
ENDBRANCH   1   7
BRANCH   3  24
ATOM     24  O   UNK d   1       8.602  22.778  -1.249  0.00  0.00    -0.353 OA
ATOM     25  C   UNK d   1       9.146  23.972  -0.698  0.00  0.00     0.210 C 
ENDBRANCH   3  24
BRANCH   4  26
ATOM     26  C   UNK d   1       9.350  17.850   1.542  0.00  0.00     0.090 A 
ATOM     27  O   UNK d   1       9.866  17.975   2.828  0.00  0.00    -0.309 OA
ATOM     28  C   UNK d   1      10.047  16.845   3.590  0.00  0.00     0.095 A 
ATOM     29  C   UNK d   1       9.757  15.556   3.136  0.00  0.00     0.081 A 
ATOM     30  C   UNK d   1      10.550  17.040   4.877  0.00  0.00     0.075 A 
ATOM     31  C   UNK d   1       9.230  15.417   1.765  0.00  0.00     0.190 A 
ATOM     32  C   UNK d   1       9.975  14.461   3.986  0.00  0.00     0.085 A 
ATOM     33  O   UNK d   1       8.955  14.352   1.228  0.00  0.00    -0.287 OA
ATOM     34  C   UNK d   1       9.035  16.663   1.006  0.00  0.00     0.094 A 
ATOM     35  C   UNK d   1      10.478  14.652   5.276  0.00  0.00     0.074 A 
ATOM     36  C   UNK d   1      10.762  15.945   5.708  0.00  0.00     0.071 A 
BRANCH  32  37
ATOM     37  O   UNK d   1       9.701  13.190   3.569  0.00  0.00    -0.360 OA
ATOM     38  H   UNK d   1       9.664  13.139   2.602  0.00  0.00     0.217 HD
ENDBRANCH  32  37
BRANCH  36  39
ATOM     39  O   UNK d   1      11.256  16.181   6.956  0.00  0.00    -0.361 OA
ATOM     40  H   UNK d   1      11.085  17.107   7.200  0.00  0.00     0.217 HD
ENDBRANCH  36  39
ENDBRANCH   4  26
TORSDOF 11
ENDMDL
MODEL 9
REMARK VINA RESULT:      -7.2     17.130     19.852
REMARK  11 active torsions:
REMARK  status: ('A' for Active; 'I' for Inactive)
REMARK    1  A    between atoms: O_2  and  C_17 
REMARK    2  A    between atoms: O_2  and  C_19 
REMARK    3  A    between atoms: O_3  and  C_13 
REMARK    4  A    between atoms: O_4  and  C_14 
REMARK    5  A    between atoms: O_5  and  C_15 
REMARK    6  A    between atoms: O_6  and  C_18 
REMARK    7  A    between atoms: O_8  and  C_21 
REMARK    8  A    between atoms: O_11  and  C_30 
REMARK    9  A    between atoms: O_12  and  C_33 
REMARK   10  A    between atoms: C_16  and  C_18 
REMARK   11  A    between atoms: C_22  and  C_25 
ROOT
ATOM      1  C   UNK d   1      23.535  -2.302  23.468  0.00  0.00     0.106 A 
ATOM      2  C   UNK d   1      23.596  -2.321  22.061  0.00  0.00     0.054 A 
ATOM      3  C   UNK d   1      23.855  -1.118  24.154  0.00  0.00     0.101 A 
ATOM      4  C   UNK d   1      24.023  -1.208  21.312  0.00  0.00     0.001 A 
ATOM      5  C   UNK d   1      24.257   0.002  23.425  0.00  0.00     0.040 A 
ATOM      6  C   UNK d   1      24.348  -0.048  22.029  0.00  0.00     0.017 A 
ENDROOT
BRANCH   1   7
ATOM      7  O   UNK d   1      23.185  -3.381  24.249  0.00  0.00    -0.315 OA
BRANCH   7   8
ATOM      8  C   UNK d   1      24.192  -4.358  24.533  0.00  0.00     0.299 C 
ATOM      9  O   UNK d   1      24.502  -5.084  23.341  0.00  0.00    -0.340 OA
ATOM     10  C   UNK d   1      25.541  -6.042  23.499  0.00  0.00     0.253 C 
ATOM     11  C   UNK d   1      25.148  -7.092  24.540  0.00  0.00     0.189 C 
ATOM     12  C   UNK d   1      24.744  -6.408  25.847  0.00  0.00     0.183 C 
ATOM     13  C   UNK d   1      23.677  -5.331  25.616  0.00  0.00     0.205 C 
BRANCH  10  14
ATOM     14  C   UNK d   1      25.851  -6.740  22.163  0.00  0.00     0.172 C 
ATOM     15  O   UNK d   1      26.862  -7.378  21.919  0.00  0.00    -0.648 OA
BRANCH  14  16
ATOM     16  O   UNK d   1      24.845  -6.633  21.255  0.00  0.00    -0.774 OA
ATOM     17  H   UNK d   1      25.174  -6.390  20.356  0.00  0.00     0.167 HD
ENDBRANCH  14  16
ENDBRANCH  10  14
BRANCH  11  18
ATOM     18  O   UNK d   1      26.264  -7.965  24.802  0.00  0.00    -0.390 OA
ATOM     19  H   UNK d   1      26.939  -7.737  24.127  0.00  0.00     0.210 HD
ENDBRANCH  11  18
BRANCH  12  20
ATOM     20  O   UNK d   1      24.256  -7.394  26.771  0.00  0.00    -0.390 OA
ATOM     21  H   UNK d   1      23.381  -7.094  27.078  0.00  0.00     0.210 HD
ENDBRANCH  12  20
BRANCH  13  22
ATOM     22  O   UNK d   1      23.460  -4.664  26.870  0.00  0.00    -0.388 OA
ATOM     23  H   UNK d   1      23.524  -5.358  27.553  0.00  0.00     0.210 HD
ENDBRANCH  13  22
ENDBRANCH   7   8
ENDBRANCH   1   7
BRANCH   3  24
ATOM     24  O   UNK d   1      23.754  -1.146  25.523  0.00  0.00    -0.353 OA
ATOM     25  C   UNK d   1      22.769  -0.311  26.120  0.00  0.00     0.210 C 
ENDBRANCH   3  24
BRANCH   4  26
ATOM     26  C   UNK d   1      24.135  -1.288  19.824  0.00  0.00     0.090 A 
ATOM     27  O   UNK d   1      24.328  -0.066  19.188  0.00  0.00    -0.309 OA
ATOM     28  C   UNK d   1      24.440  -0.035  17.819  0.00  0.00     0.095 A 
ATOM     29  C   UNK d   1      24.351  -1.173  17.012  0.00  0.00     0.081 A 
ATOM     30  C   UNK d   1      24.651   1.219  17.242  0.00  0.00     0.075 A 
ATOM     31  C   UNK d   1      24.125  -2.468  17.682  0.00  0.00     0.190 A 
ATOM     32  C   UNK d   1      24.477  -1.043  15.621  0.00  0.00     0.085 A 
ATOM     33  O   UNK d   1      24.003  -3.540  17.104  0.00  0.00    -0.287 OA
ATOM     34  C   UNK d   1      24.037  -2.443  19.151  0.00  0.00     0.094 A 
ATOM     35  C   UNK d   1      24.689   0.211  15.041  0.00  0.00     0.074 A 
ATOM     36  C   UNK d   1      24.773   1.332  15.861  0.00  0.00     0.071 A 
BRANCH  32  37
ATOM     37  O   UNK d   1      24.394  -2.138  14.809  0.00  0.00    -0.360 OA
ATOM     38  H   UNK d   1      23.538  -2.173  14.356  0.00  0.00     0.217 HD
ENDBRANCH  32  37
BRANCH  36  39
ATOM     39  O   UNK d   1      24.977   2.576  15.342  0.00  0.00    -0.361 OA
ATOM     40  H   UNK d   1      24.408   3.214  15.805  0.00  0.00     0.217 HD
ENDBRANCH  36  39
ENDBRANCH   4  26
TORSDOF 11
ENDMDL
