MODEL 1
REMARK VINA RESULT:      -8.5      0.000      0.000
REMARK  13 active torsions:
REMARK  status: ('A' for Active; 'I' for Inactive)
REMARK    1  A    between atoms: O_4  and  C_21 
REMARK    2  A    between atoms: O_4  and  C_27 
REMARK    3  A    between atoms: O_5  and  C_43 
REMARK    4  A    between atoms: N_7  and  C_19 
REMARK    5  A    between atoms: N_9  and  C_33 
REMARK    6  A    between atoms: N_10  and  C_39 
REMARK    7  A    between atoms: N_12  and  C_40 
REMARK    8  A    between atoms: N_13  and  C_44 
REMARK    9  A    between atoms: C_15  and  C_19 
REMARK   10  A    between atoms: C_15  and  C_20 
REMARK   11  A    between atoms: C_17  and  C_21 
REMARK   12  A    between atoms: C_40  and  C_45 
REMARK   13  A    between atoms: C_40  and  C_43 
ROOT
ATOM      1  F   LIG d   1       5.965  24.701   0.301  0.00  0.00    -0.204 F 
ATOM      2  F   LIG d   1       6.102  29.386   0.644  0.00  0.00    -0.204 F 
ATOM      3  C   LIG d   1       8.061  25.785   0.024  0.00  0.00     0.032 A 
ATOM      4  C   LIG d   1       6.679  25.834   0.255  0.00  0.00     0.141 A 
ATOM      5  C   LIG d   1       8.770  27.004   0.055  0.00  0.00     0.003 A 
ATOM      6  C   LIG d   1       6.010  27.040   0.447  0.00  0.00     0.059 A 
ATOM      7  C   LIG d   1       8.111  28.215   0.270  0.00  0.00     0.030 A 
ATOM      8  C   LIG d   1       6.735  28.222   0.451  0.00  0.00     0.142 A 
ENDROOT
BRANCH   3   9
ATOM      9  C   LIG d   1       8.796  24.461  -0.186  0.00  0.00     0.136 C 
ATOM     10  O   LIG d   1       8.293  23.506   0.799  0.00  0.00    -0.353 OA
ATOM     11  C   LIG d   1       9.236  23.459   1.881  0.00  0.00     0.145 C 
ATOM     12  C   LIG d   1      10.573  23.468   1.178  0.00  0.00     0.063 C 
ATOM     13  C   LIG d   1      10.323  24.522   0.107  0.00  0.00     0.039 C 
BRANCH  12  14
ATOM     14  C   LIG d   1      10.839  22.067   0.623  0.00  0.00     0.151 C 
BRANCH  14  15
ATOM     15  O   LIG d   1      11.439  21.218   1.601  0.00  0.00    -0.331 OA
BRANCH  15  16
ATOM     16  C   LIG d   1      10.816  20.003   1.747  0.00  0.00     0.094 A 
ATOM     17  C   LIG d   1      10.231  19.272   0.720  0.00  0.00     0.026 A 
ATOM     18  C   LIG d   1       9.595  18.053   0.980  0.00  0.00     0.019 A 
ATOM     19  C   LIG d   1       9.498  17.507   2.269  0.00  0.00     0.056 A 
ATOM     20  C   LIG d   1      10.143  18.243   3.280  0.00  0.00     0.019 A 
ATOM     21  C   LIG d   1      10.784  19.471   3.030  0.00  0.00     0.026 A 
BRANCH  19  22
ATOM     22  N   LIG d   1       8.858  16.274   2.506  0.00  0.00    -0.345 N 
ATOM     23  C   LIG d   1       8.047  15.706   1.394  0.00  0.00     0.119 C 
ATOM     24  C   LIG d   1       7.212  14.492   1.857  0.00  0.00     0.101 C 
ATOM     25  N   LIG d   1       8.076  13.452   2.460  0.00  0.00    -0.249 NA
ATOM     26  C   LIG d   1       8.817  13.996   3.619  0.00  0.00     0.101 C 
ATOM     27  C   LIG d   1       9.652  15.228   3.216  0.00  0.00     0.119 C 
BRANCH  25  28
ATOM     28  C   LIG d   1       7.449  12.238   2.786  0.00  0.00     0.037 A 
ATOM     29  C   LIG d   1       7.592  11.599   4.017  0.00  0.00     0.013 A 
ATOM     30  C   LIG d   1       6.918  10.404   4.298  0.00  0.00     0.019 A 
ATOM     31  C   LIG d   1       6.066   9.804   3.363  0.00  0.00     0.070 A 
ATOM     32  C   LIG d   1       5.955  10.424   2.110  0.00  0.00     0.019 A 
ATOM     33  C   LIG d   1       6.639  11.616   1.830  0.00  0.00     0.013 A 
BRANCH  31  34
ATOM     34  N   LIG d   1       5.321   8.645   3.688  0.00  0.00    -0.240 N 
ATOM     35  C   LIG d   1       4.235   8.116   3.007  0.00  0.00     0.352 A 
ATOM     36  O   LIG d   1       3.642   8.575   2.041  0.00  0.00    -0.244 OA
ATOM     37  N   LIG d   1       3.927   6.917   3.673  0.00  0.00    -0.200 N 
ATOM     38  N   LIG d   1       4.750   6.762   4.767  0.00  0.00    -0.144 NA
ATOM     39  C   LIG d   1       5.533   7.792   4.713  0.00  0.00     0.207 A 
BRANCH  37  40
ATOM     40  C   LIG d   1       2.762   6.051   3.486  0.00  0.00     0.137 C 
BRANCH  40  41
ATOM     41  C   LIG d   1       1.477   6.733   3.996  0.00  0.00     0.027 C 
ATOM     42  C   LIG d   1       1.073   6.273   5.392  0.00  0.00     0.002 C 
ENDBRANCH  40  41
BRANCH  40  43
ATOM     43  C   LIG d   1       2.575   5.518   2.034  0.00  0.00     0.133 C 
ATOM     44  C   LIG d   1       1.257   5.933   1.388  0.00  0.00     0.034 C 
BRANCH  43  45
ATOM     45  O   LIG d   1       2.751   4.104   1.956  0.00  0.00    -0.383 OA
ATOM     46  H   LIG d   1       1.907   3.693   1.705  0.00  0.00     0.210 HD
ENDBRANCH  43  45
ENDBRANCH  40  43
ENDBRANCH  37  40
ENDBRANCH  31  34
ENDBRANCH  25  28
ENDBRANCH  19  22
ENDBRANCH  15  16
ENDBRANCH  14  15
ENDBRANCH  12  14
BRANCH   9  47
ATOM     47  C   LIG d   1       8.556  23.906  -1.609  0.00  0.00     0.161 C 
BRANCH  47  48
ATOM     48  N   LIG d   1       7.618  22.805  -1.673  0.00  0.00    -0.228 N 
ATOM     49  N   LIG d   1       6.394  22.961  -2.213  0.00  0.00    -0.145 NA
ATOM     50  C   LIG d   1       5.894  21.728  -2.084  0.00  0.00     0.221 A 
ATOM     51  N   LIG d   1       6.742  20.809  -1.536  0.00  0.00    -0.201 NA
ATOM     52  C   LIG d   1       7.825  21.513  -1.298  0.00  0.00     0.197 A 
ENDBRANCH  47  48
ENDBRANCH   9  47
ENDBRANCH   3   9
TORSDOF 13
ENDMDL
MODEL 2
REMARK VINA RESULT:      -8.4      4.290      8.501
REMARK  13 active torsions:
REMARK  status: ('A' for Active; 'I' for Inactive)
REMARK    1  A    between atoms: O_4  and  C_21 
REMARK    2  A    between atoms: O_4  and  C_27 
REMARK    3  A    between atoms: O_5  and  C_43 
REMARK    4  A    between atoms: N_7  and  C_19 
REMARK    5  A    between atoms: N_9  and  C_33 
REMARK    6  A    between atoms: N_10  and  C_39 
REMARK    7  A    between atoms: N_12  and  C_40 
REMARK    8  A    between atoms: N_13  and  C_44 
REMARK    9  A    between atoms: C_15  and  C_19 
REMARK   10  A    between atoms: C_15  and  C_20 
REMARK   11  A    between atoms: C_17  and  C_21 
REMARK   12  A    between atoms: C_40  and  C_45 
REMARK   13  A    between atoms: C_40  and  C_43 
ROOT
ATOM      1  F   LIG d   1       7.344  19.295   3.222  0.00  0.00    -0.204 F 
ATOM      2  F   LIG d   1       8.777  21.860  -0.446  0.00  0.00    -0.204 F 
ATOM      3  C   LIG d   1       9.144  18.469   1.910  0.00  0.00     0.032 A 
ATOM      4  C   LIG d   1       8.169  19.440   2.175  0.00  0.00     0.141 A 
ATOM      5  C   LIG d   1      10.027  18.709   0.837  0.00  0.00     0.003 A 
ATOM      6  C   LIG d   1       8.027  20.573   1.380  0.00  0.00     0.059 A 
ATOM      7  C   LIG d   1       9.907  19.853   0.047  0.00  0.00     0.030 A 
ATOM      8  C   LIG d   1       8.899  20.768   0.320  0.00  0.00     0.142 A 
ENDROOT
BRANCH   3   9
ATOM      9  C   LIG d   1       9.301  17.224   2.784  0.00  0.00     0.136 C 
ATOM     10  O   LIG d   1      10.310  16.366   2.169  0.00  0.00    -0.353 OA
ATOM     11  C   LIG d   1       9.623  15.340   1.437  0.00  0.00     0.145 C 
ATOM     12  C   LIG d   1       8.495  14.950   2.363  0.00  0.00     0.063 C 
ATOM     13  C   LIG d   1       8.036  16.320   2.846  0.00  0.00     0.039 C 
BRANCH  12  14
ATOM     14  C   LIG d   1       9.061  14.057   3.469  0.00  0.00     0.151 C 
BRANCH  14  15
ATOM     15  O   LIG d   1       9.353  12.745   2.991  0.00  0.00    -0.331 OA
BRANCH  15  16
ATOM     16  C   LIG d   1       8.352  11.831   3.213  0.00  0.00     0.094 A 
ATOM     17  C   LIG d   1       7.436  11.398   2.262  0.00  0.00     0.026 A 
ATOM     18  C   LIG d   1       6.434  10.480   2.598  0.00  0.00     0.019 A 
ATOM     19  C   LIG d   1       6.286   9.958   3.892  0.00  0.00     0.056 A 
ATOM     20  C   LIG d   1       7.258  10.375   4.820  0.00  0.00     0.019 A 
ATOM     21  C   LIG d   1       8.269  11.299   4.493  0.00  0.00     0.026 A 
BRANCH  19  22
ATOM     22  N   LIG d   1       5.273   9.030   4.207  0.00  0.00    -0.345 N 
ATOM     23  C   LIG d   1       4.838   8.109   3.121  0.00  0.00     0.119 C 
ATOM     24  C   LIG d   1       3.571   7.317   3.516  0.00  0.00     0.101 C 
ATOM     25  N   LIG d   1       3.781   6.576   4.780  0.00  0.00    -0.249 NA
ATOM     26  C   LIG d   1       4.131   7.504   5.878  0.00  0.00     0.101 C 
ATOM     27  C   LIG d   1       5.378   8.339   5.525  0.00  0.00     0.119 C 
BRANCH  25  28
ATOM     28  C   LIG d   1       2.750   5.703   5.165  0.00  0.00     0.037 A 
ATOM     29  C   LIG d   1       1.614   5.460   4.395  0.00  0.00     0.013 A 
ATOM     30  C   LIG d   1       0.631   4.555   4.815  0.00  0.00     0.019 A 
ATOM     31  C   LIG d   1       0.749   3.851   6.019  0.00  0.00     0.070 A 
ATOM     32  C   LIG d   1       1.870   4.127   6.815  0.00  0.00     0.019 A 
ATOM     33  C   LIG d   1       2.848   5.041   6.394  0.00  0.00     0.013 A 
BRANCH  31  34
ATOM     34  N   LIG d   1      -0.205   2.874   6.393  0.00  0.00    -0.240 N 
ATOM     35  C   LIG d   1      -0.835   2.727   7.620  0.00  0.00     0.352 A 
ATOM     36  O   LIG d   1      -0.643   3.350   8.655  0.00  0.00    -0.244 OA
ATOM     37  N   LIG d   1      -1.757   1.682   7.442  0.00  0.00    -0.200 N 
ATOM     38  N   LIG d   1      -1.638   1.160   6.172  0.00  0.00    -0.144 NA
ATOM     39  C   LIG d   1      -0.729   1.897   5.619  0.00  0.00     0.207 A 
BRANCH  37  40
ATOM     40  C   LIG d   1      -2.555   0.996   8.460  0.00  0.00     0.137 C 
BRANCH  40  41
ATOM     41  C   LIG d   1      -1.652   0.371   9.543  0.00  0.00     0.027 C 
ATOM     42  C   LIG d   1      -0.791  -0.770   9.015  0.00  0.00     0.002 C 
ENDBRANCH  40  41
BRANCH  40  43
ATOM     43  C   LIG d   1      -3.678   1.864   9.099  0.00  0.00     0.133 C 
ATOM     44  C   LIG d   1      -4.471   2.690   8.091  0.00  0.00     0.034 C 
BRANCH  43  45
ATOM     45  O   LIG d   1      -3.182   2.693  10.150  0.00  0.00    -0.383 OA
ATOM     46  H   LIG d   1      -2.376   3.142   9.845  0.00  0.00     0.210 HD
ENDBRANCH  43  45
ENDBRANCH  40  43
ENDBRANCH  37  40
ENDBRANCH  31  34
ENDBRANCH  25  28
ENDBRANCH  19  22
ENDBRANCH  15  16
ENDBRANCH  14  15
ENDBRANCH  12  14
BRANCH   9  47
ATOM     47  C   LIG d   1       9.748  17.599   4.217  0.00  0.00     0.161 C 
BRANCH  47  48
ATOM     48  N   LIG d   1      10.939  18.419   4.278  0.00  0.00    -0.228 N 
ATOM     49  N   LIG d   1      12.166  17.880   4.154  0.00  0.00    -0.145 NA
ATOM     50  C   LIG d   1      12.939  18.966   4.248  0.00  0.00     0.221 A 
ATOM     51  N   LIG d   1      12.269  20.149   4.382  0.00  0.00    -0.201 NA
ATOM     52  C   LIG d   1      11.010  19.774   4.386  0.00  0.00     0.197 A 
ENDBRANCH  47  48
ENDBRANCH   9  47
ENDBRANCH   3   9
TORSDOF 13
ENDMDL
MODEL 3
REMARK VINA RESULT:      -8.2      3.276      6.265
REMARK  13 active torsions:
REMARK  status: ('A' for Active; 'I' for Inactive)
REMARK    1  A    between atoms: O_4  and  C_21 
REMARK    2  A    between atoms: O_4  and  C_27 
REMARK    3  A    between atoms: O_5  and  C_43 
REMARK    4  A    between atoms: N_7  and  C_19 
REMARK    5  A    between atoms: N_9  and  C_33 
REMARK    6  A    between atoms: N_10  and  C_39 
REMARK    7  A    between atoms: N_12  and  C_40 
REMARK    8  A    between atoms: N_13  and  C_44 
REMARK    9  A    between atoms: C_15  and  C_19 
REMARK   10  A    between atoms: C_15  and  C_20 
REMARK   11  A    between atoms: C_17  and  C_21 
REMARK   12  A    between atoms: C_40  and  C_45 
REMARK   13  A    between atoms: C_40  and  C_43 
ROOT
ATOM      1  F   LIG d   1      10.750  21.896   0.254  0.00  0.00    -0.204 F 
ATOM      2  F   LIG d   1       7.493  23.459  -2.752  0.00  0.00    -0.204 F 
ATOM      3  C   LIG d   1       8.680  20.737   0.141  0.00  0.00     0.032 A 
ATOM      4  C   LIG d   1       9.523  21.778  -0.272  0.00  0.00     0.141 A 
ATOM      5  C   LIG d   1       7.427  20.622  -0.497  0.00  0.00     0.003 A 
ATOM      6  C   LIG d   1       9.127  22.706  -1.231  0.00  0.00     0.059 A 
ATOM      7  C   LIG d   1       7.030  21.535  -1.475  0.00  0.00     0.030 A 
ATOM      8  C   LIG d   1       7.880  22.576  -1.823  0.00  0.00     0.142 A 
ENDROOT
BRANCH   3   9
ATOM      9  C   LIG d   1       9.115  19.716   1.192  0.00  0.00     0.136 C 
ATOM     10  O   LIG d   1      10.248  18.968   0.652  0.00  0.00    -0.353 OA
ATOM     11  C   LIG d   1       9.746  17.720   0.150  0.00  0.00     0.145 C 
ATOM     12  C   LIG d   1       8.757  17.293   1.209  0.00  0.00     0.063 C 
ATOM     13  C   LIG d   1       8.058  18.615   1.495  0.00  0.00     0.039 C 
BRANCH  12  14
ATOM     14  C   LIG d   1       9.534  16.728   2.400  0.00  0.00     0.151 C 
BRANCH  14  15
ATOM     15  O   LIG d   1       9.988  15.399   2.152  0.00  0.00    -0.331 OA
BRANCH  15  16
ATOM     16  C   LIG d   1       9.066  14.426   2.448  0.00  0.00     0.094 A 
ATOM     17  C   LIG d   1       8.848  13.883   3.708  0.00  0.00     0.026 A 
ATOM     18  C   LIG d   1       7.899  12.873   3.899  0.00  0.00     0.019 A 
ATOM     19  C   LIG d   1       7.129  12.346   2.851  0.00  0.00     0.056 A 
ATOM     20  C   LIG d   1       7.334  12.950   1.596  0.00  0.00     0.019 A 
ATOM     21  C   LIG d   1       8.287  13.965   1.393  0.00  0.00     0.026 A 
BRANCH  19  22
ATOM     22  N   LIG d   1       6.173  11.333   3.068  0.00  0.00    -0.345 N 
ATOM     23  C   LIG d   1       5.649  10.629   1.865  0.00  0.00     0.119 C 
ATOM     24  C   LIG d   1       4.446   9.722   2.212  0.00  0.00     0.101 C 
ATOM     25  N   LIG d   1       4.800   8.755   3.275  0.00  0.00    -0.249 NA
ATOM     26  C   LIG d   1       5.240   9.459   4.499  0.00  0.00     0.101 C 
ATOM     27  C   LIG d   1       6.427  10.399   4.203  0.00  0.00     0.119 C 
BRANCH  25  28
ATOM     28  C   LIG d   1       3.832   7.781   3.573  0.00  0.00     0.037 A 
ATOM     29  C   LIG d   1       3.407   6.810   2.667  0.00  0.00     0.013 A 
ATOM     30  C   LIG d   1       2.459   5.844   3.030  0.00  0.00     0.019 A 
ATOM     31  C   LIG d   1       1.905   5.805   4.315  0.00  0.00     0.070 A 
ATOM     32  C   LIG d   1       2.301   6.808   5.212  0.00  0.00     0.019 A 
ATOM     33  C   LIG d   1       3.243   7.779   4.842  0.00  0.00     0.013 A 
BRANCH  31  34
ATOM     34  N   LIG d   1       1.016   4.773   4.698  0.00  0.00    -0.240 N 
ATOM     35  C   LIG d   1       1.070   3.985   5.839  0.00  0.00     0.352 A 
ATOM     36  O   LIG d   1       1.933   3.957   6.705  0.00  0.00    -0.244 OA
ATOM     37  N   LIG d   1      -0.088   3.191   5.797  0.00  0.00    -0.200 N 
ATOM     38  N   LIG d   1      -0.784   3.432   4.633  0.00  0.00    -0.144 NA
ATOM     39  C   LIG d   1      -0.094   4.359   4.048  0.00  0.00     0.207 A 
BRANCH  37  40
ATOM     40  C   LIG d   1      -0.440   2.059   6.657  0.00  0.00     0.137 C 
BRANCH  40  41
ATOM     41  C   LIG d   1      -1.011   2.544   8.004  0.00  0.00     0.027 C 
ATOM     42  C   LIG d   1      -1.628   3.935   7.924  0.00  0.00     0.002 C 
ENDBRANCH  40  41
BRANCH  40  43
ATOM     43  C   LIG d   1      -1.380   1.008   5.995  0.00  0.00     0.133 C 
ATOM     44  C   LIG d   1      -2.627   0.691   6.815  0.00  0.00     0.034 C 
BRANCH  43  45
ATOM     45  O   LIG d   1      -0.685  -0.190   5.651  0.00  0.00    -0.383 OA
ATOM     46  H   LIG d   1      -0.055   0.003   4.937  0.00  0.00     0.210 HD
ENDBRANCH  43  45
ENDBRANCH  40  43
ENDBRANCH  37  40
ENDBRANCH  31  34
ENDBRANCH  25  28
ENDBRANCH  19  22
ENDBRANCH  15  16
ENDBRANCH  14  15
ENDBRANCH  12  14
BRANCH   9  47
ATOM     47  C   LIG d   1       9.539  20.411   2.508  0.00  0.00     0.161 C 
BRANCH  47  48
ATOM     48  N   LIG d   1      10.808  19.964   3.040  0.00  0.00    -0.228 N 
ATOM     49  N   LIG d   1      10.868  19.106   4.077  0.00  0.00    -0.145 NA
ATOM     50  C   LIG d   1      12.189  18.957   4.216  0.00  0.00     0.221 A 
ATOM     51  N   LIG d   1      12.952  19.635   3.308  0.00  0.00    -0.201 NA
ATOM     52  C   LIG d   1      12.054  20.251   2.572  0.00  0.00     0.197 A 
ENDBRANCH  47  48
ENDBRANCH   9  47
ENDBRANCH   3   9
TORSDOF 13
ENDMDL
MODEL 4
REMARK VINA RESULT:      -8.1      1.548      2.047
REMARK  13 active torsions:
REMARK  status: ('A' for Active; 'I' for Inactive)
REMARK    1  A    between atoms: O_4  and  C_21 
REMARK    2  A    between atoms: O_4  and  C_27 
REMARK    3  A    between atoms: O_5  and  C_43 
REMARK    4  A    between atoms: N_7  and  C_19 
REMARK    5  A    between atoms: N_9  and  C_33 
REMARK    6  A    between atoms: N_10  and  C_39 
REMARK    7  A    between atoms: N_12  and  C_40 
REMARK    8  A    between atoms: N_13  and  C_44 
REMARK    9  A    between atoms: C_15  and  C_19 
REMARK   10  A    between atoms: C_15  and  C_20 
REMARK   11  A    between atoms: C_17  and  C_21 
REMARK   12  A    between atoms: C_40  and  C_45 
REMARK   13  A    between atoms: C_40  and  C_43 
ROOT
ATOM      1  F   LIG d   1       8.198  26.355  -1.516  0.00  0.00    -0.204 F 
ATOM      2  F   LIG d   1       8.732  30.150   1.203  0.00  0.00    -0.204 F 
ATOM      3  C   LIG d   1       8.683  26.026   0.786  0.00  0.00     0.032 A 
ATOM      4  C   LIG d   1       8.458  26.873  -0.308  0.00  0.00     0.141 A 
ATOM      5  C   LIG d   1       8.883  26.628   2.046  0.00  0.00     0.003 A 
ATOM      6  C   LIG d   1       8.489  28.259  -0.181  0.00  0.00     0.059 A 
ATOM      7  C   LIG d   1       8.893  28.017   2.187  0.00  0.00     0.030 A 
ATOM      8  C   LIG d   1       8.708  28.819   1.069  0.00  0.00     0.142 A 
ENDROOT
BRANCH   3   9
ATOM      9  C   LIG d   1       8.647  24.504   0.647  0.00  0.00     0.136 C 
ATOM     10  O   LIG d   1       9.269  23.929   1.838  0.00  0.00    -0.353 OA
ATOM     11  C   LIG d   1      10.620  23.581   1.499  0.00  0.00     0.145 C 
ATOM     12  C   LIG d   1      10.487  22.975   0.121  0.00  0.00     0.063 C 
ATOM     13  C   LIG d   1       9.507  23.946  -0.523  0.00  0.00     0.039 C 
BRANCH  12  14
ATOM     14  C   LIG d   1       9.947  21.550   0.268  0.00  0.00     0.151 C 
BRANCH  14  15
ATOM     15  O   LIG d   1      10.818  20.733   1.049  0.00  0.00    -0.331 OA
BRANCH  15  16
ATOM     16  C   LIG d   1      10.272  19.531   1.425  0.00  0.00     0.094 A 
ATOM     17  C   LIG d   1      10.398  18.951   2.682  0.00  0.00     0.026 A 
ATOM     18  C   LIG d   1       9.823  17.705   2.957  0.00  0.00     0.019 A 
ATOM     19  C   LIG d   1       9.108  16.971   1.999  0.00  0.00     0.056 A 
ATOM     20  C   LIG d   1       8.953  17.605   0.752  0.00  0.00     0.019 A 
ATOM     21  C   LIG d   1       9.528  18.857   0.465  0.00  0.00     0.026 A 
BRANCH  19  22
ATOM     22  N   LIG d   1       8.531  15.721   2.300  0.00  0.00    -0.345 N 
ATOM     23  C   LIG d   1       8.726  14.629   1.306  0.00  0.00     0.119 C 
ATOM     24  C   LIG d   1       7.853  13.396   1.632  0.00  0.00     0.101 C 
ATOM     25  N   LIG d   1       8.113  12.909   3.005  0.00  0.00    -0.249 NA
ATOM     26  C   LIG d   1       7.837  13.970   3.998  0.00  0.00     0.101 C 
ATOM     27  C   LIG d   1       8.669  15.236   3.704  0.00  0.00     0.119 C 
BRANCH  25  28
ATOM     28  C   LIG d   1       7.485  11.705   3.365  0.00  0.00     0.037 A 
ATOM     29  C   LIG d   1       7.687  11.061   4.584  0.00  0.00     0.013 A 
ATOM     30  C   LIG d   1       7.009   9.876   4.902  0.00  0.00     0.019 A 
ATOM     31  C   LIG d   1       6.096   9.293   4.015  0.00  0.00     0.070 A 
ATOM     32  C   LIG d   1       5.926   9.918   2.771  0.00  0.00     0.019 A 
ATOM     33  C   LIG d   1       6.613  11.099   2.454  0.00  0.00     0.013 A 
BRANCH  31  34
ATOM     34  N   LIG d   1       5.351   8.146   4.380  0.00  0.00    -0.240 N 
ATOM     35  C   LIG d   1       4.001   8.075   4.693  0.00  0.00     0.352 A 
ATOM     36  O   LIG d   1       3.194   8.987   4.801  0.00  0.00    -0.244 OA
ATOM     37  N   LIG d   1       3.736   6.708   4.882  0.00  0.00    -0.200 N 
ATOM     38  N   LIG d   1       4.900   5.981   4.763  0.00  0.00    -0.144 NA
ATOM     39  C   LIG d   1       5.792   6.873   4.468  0.00  0.00     0.207 A 
BRANCH  37  40
ATOM     40  C   LIG d   1       2.517   6.087   5.404  0.00  0.00     0.137 C 
BRANCH  40  41
ATOM     41  C   LIG d   1       1.491   5.850   4.278  0.00  0.00     0.027 C 
ATOM     42  C   LIG d   1       2.101   5.193   3.045  0.00  0.00     0.002 C 
ENDBRANCH  40  41
BRANCH  40  43
ATOM     43  C   LIG d   1       2.752   4.788   6.231  0.00  0.00     0.133 C 
ATOM     44  C   LIG d   1       1.481   4.203   6.838  0.00  0.00     0.034 C 
BRANCH  43  45
ATOM     45  O   LIG d   1       3.753   4.965   7.232  0.00  0.00    -0.383 OA
ATOM     46  H   LIG d   1       4.559   4.496   6.961  0.00  0.00     0.210 HD
ENDBRANCH  43  45
ENDBRANCH  40  43
ENDBRANCH  37  40
ENDBRANCH  31  34
ENDBRANCH  25  28
ENDBRANCH  19  22
ENDBRANCH  15  16
ENDBRANCH  14  15
ENDBRANCH  12  14
BRANCH   9  47
ATOM     47  C   LIG d   1       7.195  23.986   0.524  0.00  0.00     0.161 C 
BRANCH  47  48
ATOM     48  N   LIG d   1       6.914  23.274  -0.704  0.00  0.00    -0.228 N 
ATOM     49  N   LIG d   1       6.833  23.920  -1.883  0.00  0.00    -0.145 NA
ATOM     50  C   LIG d   1       6.588  22.907  -2.719  0.00  0.00     0.221 A 
ATOM     51  N   LIG d   1       6.552  21.669  -2.141  0.00  0.00    -0.201 NA
ATOM     52  C   LIG d   1       6.772  21.931  -0.873  0.00  0.00     0.197 A 
ENDBRANCH  47  48
ENDBRANCH   9  47
ENDBRANCH   3   9
TORSDOF 13
ENDMDL
MODEL 5
REMARK VINA RESULT:      -8.0      2.596      4.259
REMARK  13 active torsions:
REMARK  status: ('A' for Active; 'I' for Inactive)
REMARK    1  A    between atoms: O_4  and  C_21 
REMARK    2  A    between atoms: O_4  and  C_27 
REMARK    3  A    between atoms: O_5  and  C_43 
REMARK    4  A    between atoms: N_7  and  C_19 
REMARK    5  A    between atoms: N_9  and  C_33 
REMARK    6  A    between atoms: N_10  and  C_39 
REMARK    7  A    between atoms: N_12  and  C_40 
REMARK    8  A    between atoms: N_13  and  C_44 
REMARK    9  A    between atoms: C_15  and  C_19 
REMARK   10  A    between atoms: C_15  and  C_20 
REMARK   11  A    between atoms: C_17  and  C_21 
REMARK   12  A    between atoms: C_40  and  C_45 
REMARK   13  A    between atoms: C_40  and  C_43 
ROOT
ATOM      1  F   LIG d   1       8.183  22.686  -2.812  0.00  0.00    -0.204 F 
ATOM      2  F   LIG d   1       4.214  24.890  -1.596  0.00  0.00    -0.204 F 
ATOM      3  C   LIG d   1       7.449  22.513  -0.559  0.00  0.00     0.032 A 
ATOM      4  C   LIG d   1       7.291  23.002  -1.863  0.00  0.00     0.141 A 
ATOM      5  C   LIG d   1       6.442  22.822   0.379  0.00  0.00     0.003 A 
ATOM      6  C   LIG d   1       6.217  23.815  -2.217  0.00  0.00     0.059 A 
ATOM      7  C   LIG d   1       5.350  23.617   0.028  0.00  0.00     0.030 A 
ATOM      8  C   LIG d   1       5.255  24.116  -1.264  0.00  0.00     0.142 A 
ENDROOT
BRANCH   3   9
ATOM      9  C   LIG d   1       8.627  21.619  -0.172  0.00  0.00     0.136 C 
ATOM     10  O   LIG d   1       8.584  20.427  -1.015  0.00  0.00    -0.353 OA
ATOM     11  C   LIG d   1       7.981  19.373  -0.249  0.00  0.00     0.145 C 
ATOM     12  C   LIG d   1       8.605  19.536   1.117  0.00  0.00     0.063 C 
ATOM     13  C   LIG d   1       8.552  21.050   1.275  0.00  0.00     0.039 C 
BRANCH  12  14
ATOM     14  C   LIG d   1      10.023  18.963   1.075  0.00  0.00     0.151 C 
BRANCH  14  15
ATOM     15  O   LIG d   1      10.300  18.155   2.219  0.00  0.00    -0.331 OA
BRANCH  15  16
ATOM     16  C   LIG d   1       9.476  17.064   2.348  0.00  0.00     0.094 A 
ATOM     17  C   LIG d   1       8.449  16.939   3.275  0.00  0.00     0.026 A 
ATOM     18  C   LIG d   1       7.683  15.770   3.343  0.00  0.00     0.019 A 
ATOM     19  C   LIG d   1       7.904  14.668   2.504  0.00  0.00     0.056 A 
ATOM     20  C   LIG d   1       8.916  14.842   1.542  0.00  0.00     0.019 A 
ATOM     21  C   LIG d   1       9.694  16.013   1.466  0.00  0.00     0.026 A 
BRANCH  19  22
ATOM     22  N   LIG d   1       7.115  13.503   2.585  0.00  0.00    -0.345 N 
ATOM     23  C   LIG d   1       5.642  13.688   2.689  0.00  0.00     0.119 C 
ATOM     24  C   LIG d   1       4.919  12.362   3.012  0.00  0.00     0.101 C 
ATOM     25  N   LIG d   1       5.248  11.321   2.013  0.00  0.00    -0.249 NA
ATOM     26  C   LIG d   1       6.706  11.076   1.972  0.00  0.00     0.101 C 
ATOM     27  C   LIG d   1       7.479  12.378   1.675  0.00  0.00     0.119 C 
BRANCH  25  28
ATOM     28  C   LIG d   1       4.536  10.114   2.118  0.00  0.00     0.037 A 
ATOM     29  C   LIG d   1       5.086   8.932   2.612  0.00  0.00     0.013 A 
ATOM     30  C   LIG d   1       4.320   7.764   2.723  0.00  0.00     0.019 A 
ATOM     31  C   LIG d   1       2.971   7.735   2.352  0.00  0.00     0.070 A 
ATOM     32  C   LIG d   1       2.429   8.911   1.816  0.00  0.00     0.019 A 
ATOM     33  C   LIG d   1       3.202  10.076   1.698  0.00  0.00     0.013 A 
BRANCH  31  34
ATOM     34  N   LIG d   1       2.182   6.576   2.551  0.00  0.00    -0.240 N 
ATOM     35  C   LIG d   1       1.186   6.074   1.726  0.00  0.00     0.352 A 
ATOM     36  O   LIG d   1       0.723   6.564   0.705  0.00  0.00    -0.244 OA
ATOM     37  N   LIG d   1       0.789   4.863   2.316  0.00  0.00    -0.200 N 
ATOM     38  N   LIG d   1       1.466   4.672   3.501  0.00  0.00    -0.144 NA
ATOM     39  C   LIG d   1       2.257   5.694   3.572  0.00  0.00     0.207 A 
BRANCH  37  40
ATOM     40  C   LIG d   1      -0.350   4.014   1.961  0.00  0.00     0.137 C 
BRANCH  40  41
ATOM     41  C   LIG d   1       0.123   2.639   1.448  0.00  0.00     0.027 C 
ATOM     42  C   LIG d   1       1.262   2.739   0.441  0.00  0.00     0.002 C 
ENDBRANCH  40  41
BRANCH  40  43
ATOM     43  C   LIG d   1      -1.418   3.856   3.084  0.00  0.00     0.133 C 
ATOM     44  C   LIG d   1      -1.936   5.181   3.635  0.00  0.00     0.034 C 
BRANCH  43  45
ATOM     45  O   LIG d   1      -0.961   3.014   4.142  0.00  0.00    -0.383 OA
ATOM     46  H   LIG d   1      -0.441   2.286   3.766  0.00  0.00     0.210 HD
ENDBRANCH  43  45
ENDBRANCH  40  43
ENDBRANCH  37  40
ENDBRANCH  31  34
ENDBRANCH  25  28
ENDBRANCH  19  22
ENDBRANCH  15  16
ENDBRANCH  14  15
ENDBRANCH  12  14
BRANCH   9  47
ATOM     47  C   LIG d   1       9.976  22.347  -0.380  0.00  0.00     0.161 C 
BRANCH  47  48
ATOM     48  N   LIG d   1      10.541  22.918   0.825  0.00  0.00    -0.228 N 
ATOM     49  N   LIG d   1      11.609  22.362   1.427  0.00  0.00    -0.145 NA
ATOM     50  C   LIG d   1      11.795  23.199   2.452  0.00  0.00     0.221 A 
ATOM     51  N   LIG d   1      10.936  24.260   2.503  0.00  0.00    -0.201 NA
ATOM     52  C   LIG d   1      10.165  24.063   1.458  0.00  0.00     0.197 A 
ENDBRANCH  47  48
ENDBRANCH   9  47
ENDBRANCH   3   9
TORSDOF 13
ENDMDL
MODEL 6
REMARK VINA RESULT:      -7.6      3.364      6.615
REMARK  13 active torsions:
REMARK  status: ('A' for Active; 'I' for Inactive)
REMARK    1  A    between atoms: O_4  and  C_21 
REMARK    2  A    between atoms: O_4  and  C_27 
REMARK    3  A    between atoms: O_5  and  C_43 
REMARK    4  A    between atoms: N_7  and  C_19 
REMARK    5  A    between atoms: N_9  and  C_33 
REMARK    6  A    between atoms: N_10  and  C_39 
REMARK    7  A    between atoms: N_12  and  C_40 
REMARK    8  A    between atoms: N_13  and  C_44 
REMARK    9  A    between atoms: C_15  and  C_19 
REMARK   10  A    between atoms: C_15  and  C_20 
REMARK   11  A    between atoms: C_17  and  C_21 
REMARK   12  A    between atoms: C_40  and  C_45 
REMARK   13  A    between atoms: C_40  and  C_43 
ROOT
ATOM      1  F   LIG d   1       7.325  21.895   2.074  0.00  0.00    -0.204 F 
ATOM      2  F   LIG d   1       9.985  24.782  -0.509  0.00  0.00    -0.204 F 
ATOM      3  C   LIG d   1       9.493  21.158   1.442  0.00  0.00     0.032 A 
ATOM      4  C   LIG d   1       8.477  22.123   1.428  0.00  0.00     0.141 A 
ATOM      5  C   LIG d   1      10.709  21.483   0.804  0.00  0.00     0.003 A 
ATOM      6  C   LIG d   1       8.627  23.336   0.762  0.00  0.00     0.059 A 
ATOM      7  C   LIG d   1      10.876  22.705   0.152  0.00  0.00     0.030 A 
ATOM      8  C   LIG d   1       9.828  23.615   0.127  0.00  0.00     0.142 A 
ENDROOT
BRANCH   3   9
ATOM      9  C   LIG d   1       9.330  19.826   2.175  0.00  0.00     0.136 C 
ATOM     10  O   LIG d   1      10.360  18.914   1.686  0.00  0.00    -0.353 OA
ATOM     11  C   LIG d   1       9.753  18.053   0.710  0.00  0.00     0.145 C 
ATOM     12  C   LIG d   1       8.416  17.718   1.327  0.00  0.00     0.063 C 
ATOM     13  C   LIG d   1       8.000  19.081   1.863  0.00  0.00     0.039 C 
BRANCH  12  14
ATOM     14  C   LIG d   1       8.634  16.661   2.413  0.00  0.00     0.151 C 
BRANCH  14  15
ATOM     15  O   LIG d   1       9.179  15.457   1.875  0.00  0.00    -0.331 OA
BRANCH  15  16
ATOM     16  C   LIG d   1       8.337  14.375   1.955  0.00  0.00     0.094 A 
ATOM     17  C   LIG d   1       8.161  13.576   3.078  0.00  0.00     0.026 A 
ATOM     18  C   LIG d   1       7.296  12.477   3.047  0.00  0.00     0.019 A 
ATOM     19  C   LIG d   1       6.574  12.111   1.901  0.00  0.00     0.056 A 
ATOM     20  C   LIG d   1       6.732  12.967   0.796  0.00  0.00     0.019 A 
ATOM     21  C   LIG d   1       7.601  14.074   0.816  0.00  0.00     0.026 A 
BRANCH  19  22
ATOM     22  N   LIG d   1       5.703  11.003   1.895  0.00  0.00    -0.345 N 
ATOM     23  C   LIG d   1       5.949   9.942   2.910  0.00  0.00     0.119 C 
ATOM     24  C   LIG d   1       5.089   8.686   2.645  0.00  0.00     0.101 C 
ATOM     25  N   LIG d   1       3.651   9.030   2.582  0.00  0.00    -0.249 NA
ATOM     26  C   LIG d   1       3.396  10.021   1.515  0.00  0.00     0.101 C 
ATOM     27  C   LIG d   1       4.249  11.290   1.719  0.00  0.00     0.119 C 
BRANCH  25  28
ATOM     28  C   LIG d   1       2.759   7.948   2.491  0.00  0.00     0.037 A 
ATOM     29  C   LIG d   1       1.430   8.073   2.090  0.00  0.00     0.013 A 
ATOM     30  C   LIG d   1       0.593   6.954   1.988  0.00  0.00     0.019 A 
ATOM     31  C   LIG d   1       1.055   5.664   2.275  0.00  0.00     0.070 A 
ATOM     32  C   LIG d   1       2.379   5.543   2.720  0.00  0.00     0.019 A 
ATOM     33  C   LIG d   1       3.211   6.668   2.829  0.00  0.00     0.013 A 
BRANCH  31  34
ATOM     34  N   LIG d   1       0.229   4.531   2.083  0.00  0.00    -0.240 N 
ATOM     35  C   LIG d   1      -0.172   3.966   0.881  0.00  0.00     0.352 A 
ATOM     36  O   LIG d   1       0.029   4.369  -0.256  0.00  0.00    -0.244 OA
ATOM     37  N   LIG d   1      -0.891   2.812   1.235  0.00  0.00    -0.200 N 
ATOM     38  N   LIG d   1      -0.989   2.719   2.607  0.00  0.00    -0.144 NA
ATOM     39  C   LIG d   1      -0.316   3.740   3.033  0.00  0.00     0.207 A 
BRANCH  37  40
ATOM     40  C   LIG d   1      -1.689   1.941   0.369  0.00  0.00     0.137 C 
BRANCH  40  41
ATOM     41  C   LIG d   1      -1.173   0.489   0.417  0.00  0.00     0.027 C 
ATOM     42  C   LIG d   1       0.197   0.322  -0.230  0.00  0.00     0.002 C 
ENDBRANCH  40  41
BRANCH  40  43
ATOM     43  C   LIG d   1      -3.224   2.000   0.625  0.00  0.00     0.133 C 
ATOM     44  C   LIG d   1      -4.065   1.969  -0.647  0.00  0.00     0.034 C 
BRANCH  43  45
ATOM     45  O   LIG d   1      -3.588   3.111   1.444  0.00  0.00    -0.383 OA
ATOM     46  H   LIG d   1      -4.048   2.784   2.234  0.00  0.00     0.210 HD
ENDBRANCH  43  45
ENDBRANCH  40  43
ENDBRANCH  37  40
ENDBRANCH  31  34
ENDBRANCH  25  28
ENDBRANCH  19  22
ENDBRANCH  15  16
ENDBRANCH  14  15
ENDBRANCH  12  14
BRANCH   9  47
ATOM     47  C   LIG d   1       9.485  20.005   3.704  0.00  0.00     0.161 C 
BRANCH  47  48
ATOM     48  N   LIG d   1      10.771  19.597   4.228  0.00  0.00    -0.228 N 
ATOM     49  N   LIG d   1      10.980  18.340   4.664  0.00  0.00    -0.145 NA
ATOM     50  C   LIG d   1      12.265  18.401   5.027  0.00  0.00     0.221 A 
ATOM     51  N   LIG d   1      12.877  19.603   4.808  0.00  0.00    -0.201 NA
ATOM     52  C   LIG d   1      11.914  20.332   4.292  0.00  0.00     0.197 A 
ENDBRANCH  47  48
ENDBRANCH   9  47
ENDBRANCH   3   9
TORSDOF 13
ENDMDL
MODEL 7
REMARK VINA RESULT:      -7.6      2.574      4.204
REMARK  13 active torsions:
REMARK  status: ('A' for Active; 'I' for Inactive)
REMARK    1  A    between atoms: O_4  and  C_21 
REMARK    2  A    between atoms: O_4  and  C_27 
REMARK    3  A    between atoms: O_5  and  C_43 
REMARK    4  A    between atoms: N_7  and  C_19 
REMARK    5  A    between atoms: N_9  and  C_33 
REMARK    6  A    between atoms: N_10  and  C_39 
REMARK    7  A    between atoms: N_12  and  C_40 
REMARK    8  A    between atoms: N_13  and  C_44 
REMARK    9  A    between atoms: C_15  and  C_19 
REMARK   10  A    between atoms: C_15  and  C_20 
REMARK   11  A    between atoms: C_17  and  C_21 
REMARK   12  A    between atoms: C_40  and  C_45 
REMARK   13  A    between atoms: C_40  and  C_43 
ROOT
ATOM      1  F   LIG d   1       9.209  24.705   1.913  0.00  0.00    -0.204 F 
ATOM      2  F   LIG d   1      12.876  26.710   4.062  0.00  0.00    -0.204 F 
ATOM      3  C   LIG d   1      11.179  23.411   2.211  0.00  0.00     0.032 A 
ATOM      4  C   LIG d   1      10.470  24.612   2.357  0.00  0.00     0.141 A 
ATOM      5  C   LIG d   1      12.478  23.351   2.758  0.00  0.00     0.003 A 
ATOM      6  C   LIG d   1      11.037  25.730   2.962  0.00  0.00     0.059 A 
ATOM      7  C   LIG d   1      13.046  24.460   3.387  0.00  0.00     0.030 A 
ATOM      8  C   LIG d   1      12.324  25.643   3.471  0.00  0.00     0.142 A 
ENDROOT
BRANCH   3   9
ATOM      9  C   LIG d   1      10.556  22.183   1.548  0.00  0.00     0.136 C 
ATOM     10  O   LIG d   1       9.333  21.851   2.276  0.00  0.00    -0.353 OA
ATOM     11  C   LIG d   1       9.641  20.777   3.178  0.00  0.00     0.145 C 
ATOM     12  C   LIG d   1      10.518  19.868   2.351  0.00  0.00     0.063 C 
ATOM     13  C   LIG d   1      11.414  20.889   1.660  0.00  0.00     0.039 C 
BRANCH  12  14
ATOM     14  C   LIG d   1       9.628  19.072   1.394  0.00  0.00     0.151 C 
BRANCH  14  15
ATOM     15  O   LIG d   1      10.228  17.832   1.022  0.00  0.00    -0.331 OA
BRANCH  15  16
ATOM     16  C   LIG d   1       9.484  16.727   1.353  0.00  0.00     0.094 A 
ATOM     17  C   LIG d   1       8.096  16.656   1.324  0.00  0.00     0.026 A 
ATOM     18  C   LIG d   1       7.430  15.487   1.707  0.00  0.00     0.019 A 
ATOM     19  C   LIG d   1       8.105  14.338   2.146  0.00  0.00     0.056 A 
ATOM     20  C   LIG d   1       9.509  14.421   2.116  0.00  0.00     0.019 A 
ATOM     21  C   LIG d   1      10.189  15.593   1.734  0.00  0.00     0.026 A 
BRANCH  19  22
ATOM     22  N   LIG d   1       7.414  13.168   2.521  0.00  0.00    -0.345 N 
ATOM     23  C   LIG d   1       7.035  13.036   3.955  0.00  0.00     0.119 C 
ATOM     24  C   LIG d   1       6.505  11.620   4.279  0.00  0.00     0.101 C 
ATOM     25  N   LIG d   1       5.369  11.265   3.400  0.00  0.00    -0.249 NA
ATOM     26  C   LIG d   1       5.771  11.314   1.977  0.00  0.00     0.101 C 
ATOM     27  C   LIG d   1       6.331  12.703   1.606  0.00  0.00     0.119 C 
BRANCH  25  28
ATOM     28  C   LIG d   1       4.710  10.060   3.697  0.00  0.00     0.037 A 
ATOM     29  C   LIG d   1       4.690   9.481   4.965  0.00  0.00     0.013 A 
ATOM     30  C   LIG d   1       3.990   8.292   5.210  0.00  0.00     0.019 A 
ATOM     31  C   LIG d   1       3.275   7.640   4.199  0.00  0.00     0.070 A 
ATOM     32  C   LIG d   1       3.331   8.199   2.914  0.00  0.00     0.019 A 
ATOM     33  C   LIG d   1       4.040   9.385   2.671  0.00  0.00     0.013 A 
BRANCH  31  34
ATOM     34  N   LIG d   1       2.499   6.489   4.476  0.00  0.00    -0.240 N 
ATOM     35  C   LIG d   1       1.171   6.436   4.871  0.00  0.00     0.352 A 
ATOM     36  O   LIG d   1       0.418   7.361   5.142  0.00  0.00    -0.244 OA
ATOM     37  N   LIG d   1       0.851   5.068   4.915  0.00  0.00    -0.200 N 
ATOM     38  N   LIG d   1       1.968   4.313   4.630  0.00  0.00    -0.144 NA
ATOM     39  C   LIG d   1       2.881   5.196   4.382  0.00  0.00     0.207 A 
BRANCH  37  40
ATOM     40  C   LIG d   1      -0.362   4.439   5.443  0.00  0.00     0.137 C 
BRANCH  40  41
ATOM     41  C   LIG d   1      -0.823   3.280   4.537  0.00  0.00     0.027 C 
ATOM     42  C   LIG d   1      -1.661   2.244   5.275  0.00  0.00     0.002 C 
ENDBRANCH  40  41
BRANCH  40  43
ATOM     43  C   LIG d   1      -0.264   3.984   6.929  0.00  0.00     0.133 C 
ATOM     44  C   LIG d   1      -0.596   5.082   7.934  0.00  0.00     0.034 C 
BRANCH  43  45
ATOM     45  O   LIG d   1       1.002   3.395   7.226  0.00  0.00    -0.383 OA
ATOM     46  H   LIG d   1       1.633   4.098   7.450  0.00  0.00     0.210 HD
ENDBRANCH  43  45
ENDBRANCH  40  43
ENDBRANCH  37  40
ENDBRANCH  31  34
ENDBRANCH  25  28
ENDBRANCH  19  22
ENDBRANCH  15  16
ENDBRANCH  14  15
ENDBRANCH  12  14
BRANCH   9  47
ATOM     47  C   LIG d   1      10.213  22.459   0.065  0.00  0.00     0.161 C 
BRANCH  47  48
ATOM     48  N   LIG d   1       8.886  22.040  -0.331  0.00  0.00    -0.228 N 
ATOM     49  N   LIG d   1       7.822  22.852  -0.179  0.00  0.00    -0.145 NA
ATOM     50  C   LIG d   1       6.841  22.092  -0.677  0.00  0.00     0.221 A 
ATOM     51  N   LIG d   1       7.234  20.878  -1.165  0.00  0.00    -0.201 NA
ATOM     52  C   LIG d   1       8.529  20.878  -0.944  0.00  0.00     0.197 A 
ENDBRANCH  47  48
ENDBRANCH   9  47
ENDBRANCH   3   9
TORSDOF 13
ENDMDL
MODEL 8
REMARK VINA RESULT:      -7.5     20.419     24.516
REMARK  13 active torsions:
REMARK  status: ('A' for Active; 'I' for Inactive)
REMARK    1  A    between atoms: O_4  and  C_21 
REMARK    2  A    between atoms: O_4  and  C_27 
REMARK    3  A    between atoms: O_5  and  C_43 
REMARK    4  A    between atoms: N_7  and  C_19 
REMARK    5  A    between atoms: N_9  and  C_33 
REMARK    6  A    between atoms: N_10  and  C_39 
REMARK    7  A    between atoms: N_12  and  C_40 
REMARK    8  A    between atoms: N_13  and  C_44 
REMARK    9  A    between atoms: C_15  and  C_19 
REMARK   10  A    between atoms: C_15  and  C_20 
REMARK   11  A    between atoms: C_17  and  C_21 
REMARK   12  A    between atoms: C_40  and  C_45 
REMARK   13  A    between atoms: C_40  and  C_43 
ROOT
ATOM      1  F   LIG d   1      20.831   5.227  -6.629  0.00  0.00    -0.204 F 
ATOM      2  F   LIG d   1      23.733   7.906  -4.081  0.00  0.00    -0.204 F 
ATOM      3  C   LIG d   1      21.624   4.369  -4.560  0.00  0.00     0.032 A 
ATOM      4  C   LIG d   1      21.582   5.381  -5.529  0.00  0.00     0.141 A 
ATOM      5  C   LIG d   1      22.376   4.616  -3.392  0.00  0.00     0.003 A 
ATOM      6  C   LIG d   1      22.299   6.565  -5.385  0.00  0.00     0.059 A 
ATOM      7  C   LIG d   1      23.081   5.810  -3.229  0.00  0.00     0.030 A 
ATOM      8  C   LIG d   1      23.045   6.767  -4.233  0.00  0.00     0.142 A 
ENDROOT
BRANCH   3   9
ATOM      9  C   LIG d   1      20.834   3.070  -4.717  0.00  0.00     0.136 C 
ATOM     10  O   LIG d   1      21.645   1.982  -4.177  0.00  0.00    -0.353 OA
ATOM     11  C   LIG d   1      22.282   1.322  -5.282  0.00  0.00     0.145 C 
ATOM     12  C   LIG d   1      21.188   1.252  -6.322  0.00  0.00     0.063 C 
ATOM     13  C   LIG d   1      20.585   2.645  -6.194  0.00  0.00     0.039 C 
BRANCH  12  14
ATOM     14  C   LIG d   1      20.229   0.121  -5.942  0.00  0.00     0.151 C 
BRANCH  14  15
ATOM     15  O   LIG d   1      18.865   0.533  -6.033  0.00  0.00    -0.331 OA
BRANCH  15  16
ATOM     16  C   LIG d   1      18.052  -0.361  -6.686  0.00  0.00     0.094 A 
ATOM     17  C   LIG d   1      16.701  -0.552  -6.429  0.00  0.00     0.026 A 
ATOM     18  C   LIG d   1      15.965  -1.510  -7.135  0.00  0.00     0.019 A 
ATOM     19  C   LIG d   1      16.535  -2.330  -8.120  0.00  0.00     0.056 A 
ATOM     20  C   LIG d   1      17.892  -2.080  -8.395  0.00  0.00     0.019 A 
ATOM     21  C   LIG d   1      18.642  -1.120  -7.690  0.00  0.00     0.026 A 
BRANCH  19  22
ATOM     22  N   LIG d   1      15.773  -3.285  -8.824  0.00  0.00    -0.345 N 
ATOM     23  C   LIG d   1      14.518  -3.759  -8.179  0.00  0.00     0.119 C 
ATOM     24  C   LIG d   1      13.910  -4.966  -8.928  0.00  0.00     0.101 C 
ATOM     25  N   LIG d   1      13.678  -4.643 -10.354  0.00  0.00    -0.249 NA
ATOM     26  C   LIG d   1      14.942  -4.254 -11.015  0.00  0.00     0.101 C 
ATOM     27  C   LIG d   1      15.605  -3.065 -10.290  0.00  0.00     0.119 C 
BRANCH  25  28
ATOM     28  C   LIG d   1      12.993  -5.613 -11.104  0.00  0.00     0.037 A 
ATOM     29  C   LIG d   1      11.861  -6.287 -10.649  0.00  0.00     0.013 A 
ATOM     30  C   LIG d   1      11.200  -7.224 -11.454  0.00  0.00     0.019 A 
ATOM     31  C   LIG d   1      11.640  -7.519 -12.749  0.00  0.00     0.070 A 
ATOM     32  C   LIG d   1      12.804  -6.874 -13.191  0.00  0.00     0.019 A 
ATOM     33  C   LIG d   1      13.467  -5.942 -12.379  0.00  0.00     0.013 A 
BRANCH  31  34
ATOM     34  N   LIG d   1      10.915  -8.401 -13.587  0.00  0.00    -0.240 N 
ATOM     35  C   LIG d   1      10.477  -8.172 -14.883  0.00  0.00     0.352 A 
ATOM     36  O   LIG d   1      10.548  -7.145 -15.542  0.00  0.00    -0.244 OA
ATOM     37  N   LIG d   1       9.903  -9.385 -15.300  0.00  0.00    -0.200 N 
ATOM     38  N   LIG d   1       9.924 -10.296 -14.266  0.00  0.00    -0.144 NA
ATOM     39  C   LIG d   1      10.526  -9.664 -13.310  0.00  0.00     0.207 A 
BRANCH  37  40
ATOM     40  C   LIG d   1       9.128  -9.650 -16.514  0.00  0.00     0.137 C 
BRANCH  40  41
ATOM     41  C   LIG d   1       9.332 -11.100 -16.996  0.00  0.00     0.027 C 
ATOM     42  C   LIG d   1      10.674 -11.315 -17.685  0.00  0.00     0.002 C 
ENDBRANCH  40  41
BRANCH  40  43
ATOM     43  C   LIG d   1       7.614  -9.303 -16.406  0.00  0.00     0.133 C 
ATOM     44  C   LIG d   1       7.206  -8.062 -17.193  0.00  0.00     0.034 C 
BRANCH  43  45
ATOM     45  O   LIG d   1       7.183  -9.203 -15.049  0.00  0.00    -0.383 OA
ATOM     46  H   LIG d   1       7.745  -8.561 -14.585  0.00  0.00     0.210 HD
ENDBRANCH  43  45
ENDBRANCH  40  43
ENDBRANCH  37  40
ENDBRANCH  31  34
ENDBRANCH  25  28
ENDBRANCH  19  22
ENDBRANCH  15  16
ENDBRANCH  14  15
ENDBRANCH  12  14
BRANCH   9  47
ATOM     47  C   LIG d   1      19.489   3.135  -3.956  0.00  0.00     0.161 C 
BRANCH  47  48
ATOM     48  N   LIG d   1      18.653   4.261  -4.312  0.00  0.00    -0.228 N 
ATOM     49  N   LIG d   1      18.594   5.361  -3.537  0.00  0.00    -0.145 NA
ATOM     50  C   LIG d   1      17.747   6.126  -4.233  0.00  0.00     0.221 A 
ATOM     51  N   LIG d   1      17.307   5.588  -5.409  0.00  0.00    -0.201 NA
ATOM     52  C   LIG d   1      17.904   4.418  -5.438  0.00  0.00     0.197 A 
ENDBRANCH  47  48
ENDBRANCH   9  47
ENDBRANCH   3   9
TORSDOF 13
ENDMDL
MODEL 9
REMARK VINA RESULT:      -7.3      5.485     17.337
REMARK  13 active torsions:
REMARK  status: ('A' for Active; 'I' for Inactive)
REMARK    1  A    between atoms: O_4  and  C_21 
REMARK    2  A    between atoms: O_4  and  C_27 
REMARK    3  A    between atoms: O_5  and  C_43 
REMARK    4  A    between atoms: N_7  and  C_19 
REMARK    5  A    between atoms: N_9  and  C_33 
REMARK    6  A    between atoms: N_10  and  C_39 
REMARK    7  A    between atoms: N_12  and  C_40 
REMARK    8  A    between atoms: N_13  and  C_44 
REMARK    9  A    between atoms: C_15  and  C_19 
REMARK   10  A    between atoms: C_15  and  C_20 
REMARK   11  A    between atoms: C_17  and  C_21 
REMARK   12  A    between atoms: C_40  and  C_45 
REMARK   13  A    between atoms: C_40  and  C_43 
ROOT
ATOM      1  F   LIG d   1       7.805  13.337   1.186  0.00  0.00    -0.204 F 
ATOM      2  F   LIG d   1       7.140   9.847   4.263  0.00  0.00    -0.204 F 
ATOM      3  C   LIG d   1       8.902  13.471   3.289  0.00  0.00     0.032 A 
ATOM      4  C   LIG d   1       8.049  12.810   2.395  0.00  0.00     0.141 A 
ATOM      5  C   LIG d   1       9.176  12.835   4.518  0.00  0.00     0.003 A 
ATOM      6  C   LIG d   1       7.440  11.602   2.719  0.00  0.00     0.059 A 
ATOM      7  C   LIG d   1       8.587  11.613   4.843  0.00  0.00     0.030 A 
ATOM      8  C   LIG d   1       7.714  11.014   3.945  0.00  0.00     0.142 A 
ENDROOT
BRANCH   3   9
ATOM      9  C   LIG d   1       9.573  14.798   2.932  0.00  0.00     0.136 C 
ATOM     10  O   LIG d   1       8.748  15.878   3.468  0.00  0.00    -0.353 OA
ATOM     11  C   LIG d   1       7.949  16.391   2.392  0.00  0.00     0.145 C 
ATOM     12  C   LIG d   1       8.915  16.433   1.231  0.00  0.00     0.063 C 
ATOM     13  C   LIG d   1       9.628  15.099   1.406  0.00  0.00     0.039 C 
BRANCH  12  14
ATOM     14  C   LIG d   1       9.824  17.652   1.400  0.00  0.00     0.151 C 
BRANCH  14  15
ATOM     15  O   LIG d   1      10.081  18.296   0.152  0.00  0.00    -0.331 OA
BRANCH  15  16
ATOM     16  C   LIG d   1       9.625  19.589   0.084  0.00  0.00     0.094 A 
ATOM     17  C   LIG d   1       8.492  20.005  -0.605  0.00  0.00     0.026 A 
ATOM     18  C   LIG d   1       8.128  21.356  -0.635  0.00  0.00     0.019 A 
ATOM     19  C   LIG d   1       8.872  22.358   0.005  0.00  0.00     0.056 A 
ATOM     20  C   LIG d   1       9.984  21.901   0.737  0.00  0.00     0.019 A 
ATOM     21  C   LIG d   1      10.361  20.546   0.773  0.00  0.00     0.026 A 
BRANCH  19  22
ATOM     22  N   LIG d   1       8.482  23.712  -0.033  0.00  0.00    -0.345 N 
ATOM     23  C   LIG d   1       9.560  24.722  -0.216  0.00  0.00     0.119 C 
ATOM     24  C   LIG d   1       9.040  26.161   0.001  0.00  0.00     0.101 C 
ATOM     25  N   LIG d   1       7.892  26.450  -0.889  0.00  0.00    -0.249 NA
ATOM     26  C   LIG d   1       6.788  25.497  -0.645  0.00  0.00     0.101 C 
ATOM     27  C   LIG d   1       7.261  24.039  -0.825  0.00  0.00     0.119 C 
BRANCH  25  28
ATOM     28  C   LIG d   1       7.426  27.774  -0.887  0.00  0.00     0.037 A 
ATOM     29  C   LIG d   1       6.135  28.140  -0.507  0.00  0.00     0.013 A 
ATOM     30  C   LIG d   1       5.734  29.482  -0.495  0.00  0.00     0.019 A 
ATOM     31  C   LIG d   1       6.609  30.513  -0.855  0.00  0.00     0.070 A 
ATOM     32  C   LIG d   1       7.893  30.142  -1.279  0.00  0.00     0.019 A 
ATOM     33  C   LIG d   1       8.289  28.797  -1.297  0.00  0.00     0.013 A 
BRANCH  31  34
ATOM     34  N   LIG d   1       6.222  31.871  -0.756  0.00  0.00    -0.240 N 
ATOM     35  C   LIG d   1       5.265  32.539  -1.506  0.00  0.00     0.352 A 
ATOM     36  O   LIG d   1       4.618  32.126  -2.458  0.00  0.00    -0.244 OA
ATOM     37  N   LIG d   1       5.190  33.827  -0.951  0.00  0.00    -0.200 N 
ATOM     38  N   LIG d   1       6.124  33.963   0.053  0.00  0.00    -0.144 NA
ATOM     39  C   LIG d   1       6.680  32.796   0.116  0.00  0.00     0.207 A 
BRANCH  37  40
ATOM     40  C   LIG d   1       4.474  34.995  -1.469  0.00  0.00     0.137 C 
BRANCH  40  41
ATOM     41  C   LIG d   1       3.639  35.668  -0.361  0.00  0.00     0.027 C 
ATOM     42  C   LIG d   1       2.145  35.665  -0.657  0.00  0.00     0.002 C 
ENDBRANCH  40  41
BRANCH  40  43
ATOM     43  C   LIG d   1       5.372  36.034  -2.204  0.00  0.00     0.133 C 
ATOM     44  C   LIG d   1       4.920  36.344  -3.628  0.00  0.00     0.034 C 
BRANCH  43  45
ATOM     45  O   LIG d   1       6.750  35.662  -2.181  0.00  0.00    -0.383 OA
ATOM     46  H   LIG d   1       6.883  34.982  -1.502  0.00  0.00     0.210 HD
ENDBRANCH  43  45
ENDBRANCH  40  43
ENDBRANCH  37  40
ENDBRANCH  31  34
ENDBRANCH  25  28
ENDBRANCH  19  22
ENDBRANCH  15  16
ENDBRANCH  14  15
ENDBRANCH  12  14
BRANCH   9  47
ATOM     47  C   LIG d   1      10.995  14.888   3.536  0.00  0.00     0.161 C 
BRANCH  47  48
ATOM     48  N   LIG d   1      11.183  15.981   4.466  0.00  0.00    -0.228 N 
ATOM     49  N   LIG d   1      11.691  17.161   4.063  0.00  0.00    -0.145 NA
ATOM     50  C   LIG d   1      11.669  17.857   5.204  0.00  0.00     0.221 A 
ATOM     51  N   LIG d   1      11.144  17.198   6.279  0.00  0.00    -0.201 NA
ATOM     52  C   LIG d   1      10.835  16.023   5.781  0.00  0.00     0.197 A 
ENDBRANCH  47  48
ENDBRANCH   9  47
ENDBRANCH   3   9
TORSDOF 13
ENDMDL
