REMARK  13 active torsions:
REMARK  status: ('A' for Active; 'I' for Inactive)
REMARK    1  A    between atoms: S_2  and  C_10 
REMARK    2  A    between atoms: S_2  and  C_13 
REMARK    3  A    between atoms: O_5  and  C_23 
REMARK    4  A    between atoms: C_7  and  C_10 
REMARK    5  A    between atoms: C_7  and  C_11 
REMARK    6  A    between atoms: C_11  and  C_12 
REMARK    7  A    between atoms: C_13  and  C_15 
REMARK    8  A    between atoms: C_13  and  C_14 
REMARK    9  A    between atoms: C_14  and  C_16 
REMARK   10  A    between atoms: C_16  and  C_19 
REMARK   11  A    between atoms: C_20  and  C_23 
REMARK   12  A    between atoms: C_21  and  C_28 
REMARK   13  A    between atoms: C_32  and  C_33 
ROOT
ATOM      1  C   LIG d   1       1.997  13.388  -7.027  0.00  0.00     0.080 C 
ENDROOT
BRANCH   1   2
ATOM      2  S   LIG d   1       1.195  12.400  -5.698  0.00  0.00    -0.159 SA
BRANCH   2   3
ATOM      3  C   LIG d   1       2.557  11.238  -5.352  0.00  0.00     0.084 C 
BRANCH   3   4
ATOM      4  C   LIG d   1       2.746  11.092  -3.854  0.00  0.00    -0.022 A 
ATOM      5  C   LIG d   1       1.974   9.987  -3.154  0.00  0.00     0.011 A 
ATOM      6  C   LIG d   1       1.571  11.413  -2.941  0.00  0.00     0.011 A 
BRANCH   4   7
ATOM      7  C   LIG d   1       4.157  11.369  -3.339  0.00  0.00     0.123 C 
BRANCH   7   8
ATOM      8  C   LIG d   1       4.227  12.541  -2.347  0.00  0.00     0.173 C 
ATOM      9  O   LIG d   1       4.886  13.548  -2.740  0.00  0.00    -0.648 OA
ATOM     10  O   LIG d   1       3.613  12.363  -1.257  0.00  0.00    -0.648 OA
ENDBRANCH   7   8
ENDBRANCH   4   7
ENDBRANCH   3   4
ENDBRANCH   2   3
ENDBRANCH   1   2
BRANCH   1  11
ATOM     11  C   LIG d   1       1.191  14.634  -7.370  0.00  0.00    -0.043 A 
ATOM     12  C   LIG d   1       1.816  15.842  -7.729  0.00  0.00     0.019 A 
ATOM     13  C   LIG d   1       1.073  16.995  -8.019  0.00  0.00    -0.036 A 
ATOM     14  C   LIG d   1      -0.322  16.927  -7.978  0.00  0.00     0.011 A 
ATOM     15  C   LIG d   1      -0.960  15.729  -7.650  0.00  0.00     0.001 A 
ATOM     16  C   LIG d   1      -0.210  14.593  -7.341  0.00  0.00     0.008 A 
BRANCH  13  17
ATOM     17  C   LIG d   1       1.803  18.252  -8.239  0.00  0.00     0.014 C 
ATOM     18  C   LIG d   1       2.871  18.396  -9.040  0.00  0.00     0.032 C 
BRANCH  18  19
ATOM     19  C   LIG d   1       3.563  19.668  -9.289  0.00  0.00     0.057 A 
ATOM     20  N   LIG d   1       3.646  20.480  -8.207  0.00  0.00    -0.248 NA
ATOM     21  C   LIG d   1       4.279  21.659  -8.330  0.00  0.00     0.069 A 
ATOM     22  C   LIG d   1       4.842  22.092  -9.549  0.00  0.00    -0.007 A 
ATOM     23  C   LIG d   1       4.390  22.486  -7.223  0.00  0.00     0.056 A 
ATOM     24  C   LIG d   1       4.718  21.253 -10.660  0.00  0.00     0.016 A 
ATOM     25  C   LIG d   1       5.502  23.329  -9.631  0.00  0.00     0.015 A 
ATOM     26  C   LIG d   1       4.067  20.031 -10.531  0.00  0.00     0.032 A 
ATOM     27  C   LIG d   1       5.604  24.142  -8.505  0.00  0.00     0.025 A 
ATOM     28  C   LIG d   1       5.046  23.715  -7.305  0.00  0.00     0.036 A 
ATOM     29 CL   LIG d   1       5.165  24.714  -5.909  0.00  0.00    -0.084 Cl
ENDBRANCH  18  19
ENDBRANCH  13  17
ENDBRANCH   1  11
BRANCH   1  30
ATOM     30  C   LIG d   1       3.436  13.730  -6.587  0.00  0.00     0.025 C 
BRANCH  30  31
ATOM     31  C   LIG d   1       3.524  14.001  -5.074  0.00  0.00     0.040 C 
BRANCH  31  32
ATOM     32  C   LIG d   1       3.736  15.469  -4.748  0.00  0.00    -0.049 A 
ATOM     33  C   LIG d   1       3.004  16.215  -3.788  0.00  0.00    -0.019 A 
ATOM     34  C   LIG d   1       3.418  17.554  -3.564  0.00  0.00     0.011 A 
ATOM     35  C   LIG d   1       4.458  18.151  -4.279  0.00  0.00     0.001 A 
ATOM     36  C   LIG d   1       5.132  17.426  -5.246  0.00  0.00     0.001 A 
ATOM     37  C   LIG d   1       4.776  16.102  -5.472  0.00  0.00     0.007 A 
BRANCH  33  38
ATOM     38  C   LIG d   1       1.807  15.681  -2.979  0.00  0.00     0.078 C 
ATOM     39  C   LIG d   1       1.727  16.269  -1.561  0.00  0.00     0.051 C 
ATOM     40  C   LIG d   1       0.480  15.819  -3.732  0.00  0.00     0.051 C 
BRANCH  38  41
ATOM     41  O   LIG d   1       1.946  14.256  -2.767  0.00  0.00    -0.386 OA
ATOM     42  H   LIG d   1       2.803  14.123  -2.327  0.00  0.00     0.211 HD
ENDBRANCH  38  41
ENDBRANCH  33  38
ENDBRANCH  31  32
ENDBRANCH  30  31
ENDBRANCH   1  30
TORSDOF 13
