MODEL 1
REMARK VINA RESULT:      -8.5      0.000      0.000
REMARK  9 active torsions:
REMARK  status: ('A' for Active; 'I' for Inactive)
REMARK    1  A    between atoms: N_3  and  C_17 
REMARK    2  A    between atoms: N_4  and  C_18 
REMARK       I    between atoms: N_5  and  C_19 
REMARK       I    between atoms: N_6  and  C_20 
REMARK       I    between atoms: N_7  and  C_19 
REMARK       I    between atoms: N_8  and  C_20 
REMARK       I    between atoms: N_9  and  C_21 
REMARK    3  A    between atoms: N_9  and  C_23 
REMARK       I    between atoms: N_10  and  C_22 
REMARK    4  A    between atoms: N_10  and  C_24 
REMARK       I    between atoms: N_11  and  C_21 
REMARK       I    between atoms: N_12  and  C_22 
REMARK    5  A    between atoms: C_13  and  C_14 
REMARK    6  A    between atoms: C_13  and  C_15 
REMARK    7  A    between atoms: C_14  and  C_16 
REMARK    8  A    between atoms: C_15  and  C_17 
REMARK    9  A    between atoms: C_16  and  C_18 
ROOT
ATOM      1  C   LIG d   1       6.993  -5.145  21.337  0.00  0.00     0.002 C 
ENDROOT
BRANCH   1   2
ATOM      2  C   LIG d   1       6.883  -6.147  22.487  0.00  0.00     0.002 C 
BRANCH   2   3
ATOM      3  C   LIG d   1       6.252  -5.505  23.723  0.00  0.00     0.022 C 
BRANCH   3   4
ATOM      4  C   LIG d   1       7.217  -5.513  24.906  0.00  0.00     0.152 C 
BRANCH   4   5
ATOM      5  N   LIG d   1       7.798  -4.185  25.077  0.00  0.00    -0.261 NA
ATOM      6  C   LIG d   1       8.982  -3.939  24.644  0.00  0.00     0.197 C 
ATOM      7  N   LIG d   1       9.482  -2.682  24.805  0.00  0.00    -0.190 NA
ATOM      8  N   LIG d   1       9.811  -4.787  23.981  0.00  0.00    -0.271 NA
ATOM      9  C   LIG d   1       9.271  -2.001  25.883  0.00  0.00     0.180 C 
ATOM     10  N   LIG d   1       9.754  -0.741  26.128  0.00  0.00    -0.331 N 
ATOM     11  N   LIG d   1       8.566  -2.418  26.978  0.00  0.00    -0.272 NA
ATOM     12  H   LIG d   1       9.968  -0.578  27.102  0.00  0.00     0.168 HD
ATOM     13  H   LIG d   1       8.034  -3.257  26.727  0.00  0.00     0.127 HD
ATOM     14  H   LIG d   1       7.907  -1.713  27.290  0.00  0.00     0.127 HD
ATOM     15  H   LIG d   1       9.343  -5.398  23.329  0.00  0.00     0.127 HD
ATOM     16  H   LIG d   1      10.558  -4.263  23.541  0.00  0.00     0.127 HD
BRANCH  10  17
ATOM     17  C   LIG d   1      10.386   0.135  25.229  0.00  0.00     0.034 A 
ATOM     18  C   LIG d   1       9.697   1.276  24.786  0.00  0.00     0.031 A 
ATOM     19  C   LIG d   1      10.278   2.164  23.875  0.00  0.00     0.026 A 
ATOM     20  C   LIG d   1      11.555   1.914  23.384  0.00  0.00     0.034 A 
ATOM     21 CL   LIG d   1      12.271   3.000  22.259  0.00  0.00    -0.084 Cl
ATOM     22  C   LIG d   1      12.252   0.784  23.796  0.00  0.00     0.026 A 
ATOM     23  C   LIG d   1      11.668  -0.099  24.710  0.00  0.00     0.031 A 
ENDBRANCH  10  17
ENDBRANCH   4   5
ENDBRANCH   3   4
ENDBRANCH   2   3
ENDBRANCH   1   2
BRANCH   1  24
ATOM     24  C   LIG d   1       8.046  -5.581  20.319  0.00  0.00     0.022 C 
BRANCH  24  25
ATOM     25  C   LIG d   1       7.609  -5.251  18.892  0.00  0.00     0.152 C 
BRANCH  25  26
ATOM     26  N   LIG d   1       7.321  -3.825  18.767  0.00  0.00    -0.261 NA
ATOM     27  C   LIG d   1       8.170  -3.040  18.205  0.00  0.00     0.197 C 
ATOM     28  N   LIG d   1       7.878  -1.710  18.098  0.00  0.00    -0.190 NA
ATOM     29  N   LIG d   1       9.350  -3.395  17.633  0.00  0.00    -0.271 NA
ATOM     30  C   LIG d   1       7.115  -1.098  18.953  0.00  0.00     0.180 C 
ATOM     31  N   LIG d   1       6.849   0.224  18.738  0.00  0.00    -0.331 N 
ATOM     32  N   LIG d   1       6.478  -1.656  20.019  0.00  0.00    -0.272 NA
ATOM     33  H   LIG d   1       7.272   0.557  17.878  0.00  0.00     0.168 HD
ATOM     34  H   LIG d   1       6.499  -2.677  19.938  0.00  0.00     0.127 HD
ATOM     35  H   LIG d   1       5.526  -1.326  20.114  0.00  0.00     0.127 HD
ATOM     36  H   LIG d   1       9.346  -4.299  17.187  0.00  0.00     0.127 HD
ATOM     37  H   LIG d   1       9.681  -2.660  17.020  0.00  0.00     0.127 HD
BRANCH  31  38
ATOM     38  C   LIG d   1       6.573   1.266  19.645  0.00  0.00     0.034 A 
ATOM     39  C   LIG d   1       5.317   1.892  19.568  0.00  0.00     0.031 A 
ATOM     40  C   LIG d   1       4.950   2.898  20.468  0.00  0.00     0.026 A 
ATOM     41  C   LIG d   1       5.837   3.286  21.466  0.00  0.00     0.034 A 
ATOM     42 CL   LIG d   1       5.390   4.518  22.579  0.00  0.00    -0.084 Cl
ATOM     43  C   LIG d   1       7.083   2.677  21.567  0.00  0.00     0.026 A 
ATOM     44  C   LIG d   1       7.444   1.670  20.664  0.00  0.00     0.031 A 
ENDBRANCH  31  38
ENDBRANCH  25  26
ENDBRANCH  24  25
ENDBRANCH   1  24
TORSDOF 9
ENDMDL
MODEL 2
REMARK VINA RESULT:      -8.1      1.510      5.944
REMARK  9 active torsions:
REMARK  status: ('A' for Active; 'I' for Inactive)
REMARK    1  A    between atoms: N_3  and  C_17 
REMARK    2  A    between atoms: N_4  and  C_18 
REMARK       I    between atoms: N_5  and  C_19 
REMARK       I    between atoms: N_6  and  C_20 
REMARK       I    between atoms: N_7  and  C_19 
REMARK       I    between atoms: N_8  and  C_20 
REMARK       I    between atoms: N_9  and  C_21 
REMARK    3  A    between atoms: N_9  and  C_23 
REMARK       I    between atoms: N_10  and  C_22 
REMARK    4  A    between atoms: N_10  and  C_24 
REMARK       I    between atoms: N_11  and  C_21 
REMARK       I    between atoms: N_12  and  C_22 
REMARK    5  A    between atoms: C_13  and  C_14 
REMARK    6  A    between atoms: C_13  and  C_15 
REMARK    7  A    between atoms: C_14  and  C_16 
REMARK    8  A    between atoms: C_15  and  C_17 
REMARK    9  A    between atoms: C_16  and  C_18 
ROOT
ATOM      1  C   LIG d   1       8.048  -5.186  21.003  0.00  0.00     0.002 C 
ENDROOT
BRANCH   1   2
ATOM      2  C   LIG d   1       7.605  -5.209  19.539  0.00  0.00     0.002 C 
BRANCH   2   3
ATOM      3  C   LIG d   1       8.768  -4.885  18.603  0.00  0.00     0.022 C 
BRANCH   3   4
ATOM      4  C   LIG d   1       8.565  -3.536  17.914  0.00  0.00     0.152 C 
BRANCH   4   5
ATOM      5  N   LIG d   1       8.423  -2.487  18.919  0.00  0.00    -0.261 NA
ATOM      6  C   LIG d   1       7.730  -1.437  18.660  0.00  0.00     0.197 C 
ATOM      7  N   LIG d   1       7.604  -0.490  19.631  0.00  0.00    -0.190 NA
ATOM      8  N   LIG d   1       7.042  -1.163  17.521  0.00  0.00    -0.271 NA
ATOM      9  C   LIG d   1       8.593  -0.169  20.399  0.00  0.00     0.180 C 
ATOM     10  N   LIG d   1       8.552   0.785  21.383  0.00  0.00    -0.331 N 
ATOM     11  N   LIG d   1       9.856  -0.692  20.351  0.00  0.00    -0.272 NA
ATOM     12  H   LIG d   1       9.429   1.271  21.504  0.00  0.00     0.168 HD
ATOM     13  H   LIG d   1       9.840  -1.538  19.772  0.00  0.00     0.127 HD
ATOM     14  H   LIG d   1      10.190  -0.951  21.272  0.00  0.00     0.127 HD
ATOM     15  H   LIG d   1       6.592  -1.963  17.105  0.00  0.00     0.127 HD
ATOM     16  H   LIG d   1       6.390  -0.405  17.689  0.00  0.00     0.127 HD
BRANCH  10  17
ATOM     17  C   LIG d   1       7.427   1.457  21.892  0.00  0.00     0.034 A 
ATOM     18  C   LIG d   1       7.278   2.829  21.638  0.00  0.00     0.031 A 
ATOM     19  C   LIG d   1       6.185   3.544  22.142  0.00  0.00     0.026 A 
ATOM     20  C   LIG d   1       5.233   2.893  22.919  0.00  0.00     0.034 A 
ATOM     21 CL   LIG d   1       3.892   3.769  23.546  0.00  0.00    -0.084 Cl
ATOM     22  C   LIG d   1       5.367   1.538  23.197  0.00  0.00     0.026 A 
ATOM     23  C   LIG d   1       6.459   0.828  22.688  0.00  0.00     0.031 A 
ENDBRANCH  10  17
ENDBRANCH   4   5
ENDBRANCH   3   4
ENDBRANCH   2   3
ENDBRANCH   1   2
BRANCH   1  24
ATOM     24  C   LIG d   1       7.243  -6.177  21.844  0.00  0.00     0.022 C 
BRANCH  24  25
ATOM     25  C   LIG d   1       6.951  -5.615  23.235  0.00  0.00     0.152 C 
BRANCH  25  26
ATOM     26  N   LIG d   1       7.913  -4.569  23.571  0.00  0.00    -0.261 NA
ATOM     27  C   LIG d   1       8.194  -4.319  24.800  0.00  0.00     0.197 C 
ATOM     28  N   LIG d   1       9.099  -3.338  25.091  0.00  0.00    -0.190 NA
ATOM     29  N   LIG d   1       7.720  -4.976  25.892  0.00  0.00    -0.271 NA
ATOM     30  C   LIG d   1       9.281  -2.313  24.313  0.00  0.00     0.180 C 
ATOM     31  N   LIG d   1      10.237  -1.406  24.670  0.00  0.00    -0.331 N 
ATOM     32  N   LIG d   1       8.665  -2.077  23.123  0.00  0.00    -0.272 NA
ATOM     33  H   LIG d   1      10.726  -1.686  25.513  0.00  0.00     0.168 HD
ATOM     34  H   LIG d   1       8.193  -2.928  22.803  0.00  0.00     0.127 HD
ATOM     35  H   LIG d   1       9.309  -1.741  22.417  0.00  0.00     0.127 HD
ATOM     36  H   LIG d   1       7.558  -5.961  25.753  0.00  0.00     0.127 HD
ATOM     37  H   LIG d   1       8.302  -4.786  26.699  0.00  0.00     0.127 HD
BRANCH  31  38
ATOM     38  C   LIG d   1      10.326  -0.021  24.428  0.00  0.00     0.034 A 
ATOM     39  C   LIG d   1      11.324   0.433  23.547  0.00  0.00     0.031 A 
ATOM     40  C   LIG d   1      11.440   1.787  23.216  0.00  0.00     0.026 A 
ATOM     41  C   LIG d   1      10.550   2.707  23.760  0.00  0.00     0.034 A 
ATOM     42 CL   LIG d   1      10.685   4.372  23.353  0.00  0.00    -0.084 Cl
ATOM     43  C   LIG d   1       9.550   2.282  24.627  0.00  0.00     0.026 A 
ATOM     44  C   LIG d   1       9.438   0.926  24.954  0.00  0.00     0.031 A 
ENDBRANCH  31  38
ENDBRANCH  25  26
ENDBRANCH  24  25
ENDBRANCH   1  24
TORSDOF 9
ENDMDL
MODEL 3
REMARK VINA RESULT:      -7.9     26.376     29.051
REMARK  9 active torsions:
REMARK  status: ('A' for Active; 'I' for Inactive)
REMARK    1  A    between atoms: N_3  and  C_17 
REMARK    2  A    between atoms: N_4  and  C_18 
REMARK       I    between atoms: N_5  and  C_19 
REMARK       I    between atoms: N_6  and  C_20 
REMARK       I    between atoms: N_7  and  C_19 
REMARK       I    between atoms: N_8  and  C_20 
REMARK       I    between atoms: N_9  and  C_21 
REMARK    3  A    between atoms: N_9  and  C_23 
REMARK       I    between atoms: N_10  and  C_22 
REMARK    4  A    between atoms: N_10  and  C_24 
REMARK       I    between atoms: N_11  and  C_21 
REMARK       I    between atoms: N_12  and  C_22 
REMARK    5  A    between atoms: C_13  and  C_14 
REMARK    6  A    between atoms: C_13  and  C_15 
REMARK    7  A    between atoms: C_14  and  C_16 
REMARK    8  A    between atoms: C_15  and  C_17 
REMARK    9  A    between atoms: C_16  and  C_18 
ROOT
ATOM      1  C   LIG d   1      17.424   2.348  -6.113  0.00  0.00     0.002 C 
ENDROOT
BRANCH   1   2
ATOM      2  C   LIG d   1      16.124   1.973  -5.402  0.00  0.00     0.002 C 
BRANCH   2   3
ATOM      3  C   LIG d   1      15.270   1.042  -6.262  0.00  0.00     0.022 C 
BRANCH   3   4
ATOM      4  C   LIG d   1      14.484   0.056  -5.401  0.00  0.00     0.152 C 
BRANCH   4   5
ATOM      5  N   LIG d   1      15.404  -0.877  -4.756  0.00  0.00    -0.261 NA
ATOM      6  C   LIG d   1      15.392  -2.120  -5.078  0.00  0.00     0.197 C 
ATOM      7  N   LIG d   1      16.279  -2.954  -4.470  0.00  0.00    -0.190 NA
ATOM      8  N   LIG d   1      14.613  -2.721  -6.015  0.00  0.00    -0.271 NA
ATOM      9  C   LIG d   1      16.566  -2.842  -3.214  0.00  0.00     0.180 C 
ATOM     10  N   LIG d   1      17.431  -3.652  -2.525  0.00  0.00    -0.331 N 
ATOM     11  N   LIG d   1      16.041  -1.926  -2.344  0.00  0.00    -0.272 NA
ATOM     12  H   LIG d   1      17.163  -3.796  -1.562  0.00  0.00     0.168 HD
ATOM     13  H   LIG d   1      15.563  -1.197  -2.883  0.00  0.00     0.127 HD
ATOM     14  H   LIG d   1      16.762  -1.480  -1.788  0.00  0.00     0.127 HD
ATOM     15  H   LIG d   1      14.457  -2.167  -6.843  0.00  0.00     0.127 HD
ATOM     16  H   LIG d   1      14.989  -3.636  -6.237  0.00  0.00     0.127 HD
BRANCH  10  17
ATOM     17  C   LIG d   1      18.314  -4.615  -3.043  0.00  0.00     0.034 A 
ATOM     18  C   LIG d   1      19.697  -4.377  -2.984  0.00  0.00     0.031 A 
ATOM     19  C   LIG d   1      20.613  -5.297  -3.507  0.00  0.00     0.026 A 
ATOM     20  C   LIG d   1      20.153  -6.465  -4.107  0.00  0.00     0.034 A 
ATOM     21 CL   LIG d   1      21.275  -7.596  -4.756  0.00  0.00    -0.084 Cl
ATOM     22  C   LIG d   1      18.788  -6.716  -4.190  0.00  0.00     0.026 A 
ATOM     23  C   LIG d   1      17.878  -5.795  -3.664  0.00  0.00     0.031 A 
ENDBRANCH  10  17
ENDBRANCH   4   5
ENDBRANCH   3   4
ENDBRANCH   2   3
ENDBRANCH   1   2
BRANCH   1  24
ATOM     24  C   LIG d   1      18.073   3.576  -5.475  0.00  0.00     0.022 C 
BRANCH  24  25
ATOM     25  C   LIG d   1      17.540   4.869  -6.092  0.00  0.00     0.152 C 
BRANCH  25  26
ATOM     26  N   LIG d   1      18.101   6.028  -5.403  0.00  0.00    -0.261 NA
ATOM     27  C   LIG d   1      19.178   6.580  -5.837  0.00  0.00     0.197 C 
ATOM     28  N   LIG d   1      19.683   7.665  -5.178  0.00  0.00    -0.190 NA
ATOM     29  N   LIG d   1      19.877   6.234  -6.950  0.00  0.00    -0.271 NA
ATOM     30  C   LIG d   1      19.501   7.846  -3.905  0.00  0.00     0.180 C 
ATOM     31  N   LIG d   1      20.011   8.982  -3.345  0.00  0.00    -0.331 N 
ATOM     32  N   LIG d   1      18.781   7.053  -3.065  0.00  0.00    -0.272 NA
ATOM     33  H   LIG d   1      20.452   9.578  -4.037  0.00  0.00     0.168 HD
ATOM     34  H   LIG d   1      18.209   6.401  -3.611  0.00  0.00     0.127 HD
ATOM     35  H   LIG d   1      18.202   7.590  -2.431  0.00  0.00     0.127 HD
ATOM     36  H   LIG d   1      19.311   5.898  -7.714  0.00  0.00     0.127 HD
ATOM     37  H   LIG d   1      20.497   6.985  -7.226  0.00  0.00     0.127 HD
BRANCH  31  38
ATOM     38  C   LIG d   1      20.477   9.235  -2.039  0.00  0.00     0.034 A 
ATOM     39  C   LIG d   1      19.615   9.898  -1.148  0.00  0.00     0.031 A 
ATOM     40  C   LIG d   1      19.986  10.137   0.180  0.00  0.00     0.026 A 
ATOM     41  C   LIG d   1      21.227   9.705   0.636  0.00  0.00     0.034 A 
ATOM     42 CL   LIG d   1      21.686   9.991   2.268  0.00  0.00    -0.084 Cl
ATOM     43  C   LIG d   1      22.094   9.040  -0.224  0.00  0.00     0.026 A 
ATOM     44  C   LIG d   1      21.717   8.804  -1.551  0.00  0.00     0.031 A 
ENDBRANCH  31  38
ENDBRANCH  25  26
ENDBRANCH  24  25
ENDBRANCH   1  24
TORSDOF 9
ENDMDL
MODEL 4
REMARK VINA RESULT:      -7.8     27.031     29.524
REMARK  9 active torsions:
REMARK  status: ('A' for Active; 'I' for Inactive)
REMARK    1  A    between atoms: N_3  and  C_17 
REMARK    2  A    between atoms: N_4  and  C_18 
REMARK       I    between atoms: N_5  and  C_19 
REMARK       I    between atoms: N_6  and  C_20 
REMARK       I    between atoms: N_7  and  C_19 
REMARK       I    between atoms: N_8  and  C_20 
REMARK       I    between atoms: N_9  and  C_21 
REMARK    3  A    between atoms: N_9  and  C_23 
REMARK       I    between atoms: N_10  and  C_22 
REMARK    4  A    between atoms: N_10  and  C_24 
REMARK       I    between atoms: N_11  and  C_21 
REMARK       I    between atoms: N_12  and  C_22 
REMARK    5  A    between atoms: C_13  and  C_14 
REMARK    6  A    between atoms: C_13  and  C_15 
REMARK    7  A    between atoms: C_14  and  C_16 
REMARK    8  A    between atoms: C_15  and  C_17 
REMARK    9  A    between atoms: C_16  and  C_18 
ROOT
ATOM      1  C   LIG d   1      17.860   3.914  -5.685  0.00  0.00     0.002 C 
ENDROOT
BRANCH   1   2
ATOM      2  C   LIG d   1      18.183   4.639  -6.992  0.00  0.00     0.002 C 
BRANCH   2   3
ATOM      3  C   LIG d   1      18.126   6.156  -6.813  0.00  0.00     0.022 C 
BRANCH   3   4
ATOM      4  C   LIG d   1      19.526   6.764  -6.779  0.00  0.00     0.152 C 
BRANCH   4   5
ATOM      5  N   LIG d   1      19.731   7.458  -5.510  0.00  0.00    -0.261 NA
ATOM      6  C   LIG d   1      20.588   7.012  -4.664  0.00  0.00     0.197 C 
ATOM      7  N   LIG d   1      20.765   7.698  -3.501  0.00  0.00    -0.190 NA
ATOM      8  N   LIG d   1      21.404   5.935  -4.804  0.00  0.00    -0.271 NA
ATOM      9  C   LIG d   1      19.770   8.224  -2.865  0.00  0.00     0.180 C 
ATOM     10  N   LIG d   1      19.862   8.912  -1.682  0.00  0.00    -0.331 N 
ATOM     11  N   LIG d   1      18.453   8.164  -3.232  0.00  0.00    -0.272 NA
ATOM     12  H   LIG d   1      19.057   8.788  -1.084  0.00  0.00     0.168 HD
ATOM     13  H   LIG d   1      18.397   7.842  -4.203  0.00  0.00     0.127 HD
ATOM     14  H   LIG d   1      18.007   9.073  -3.179  0.00  0.00     0.127 HD
ATOM     15  H   LIG d   1      21.768   5.809  -5.736  0.00  0.00     0.127 HD
ATOM     16  H   LIG d   1      22.141   5.970  -4.110  0.00  0.00     0.127 HD
BRANCH  10  17
ATOM     17  C   LIG d   1      21.024   9.355  -1.026  0.00  0.00     0.034 A 
ATOM     18  C   LIG d   1      21.010   9.494   0.371  0.00  0.00     0.031 A 
ATOM     19  C   LIG d   1      22.135   9.953   1.065  0.00  0.00     0.026 A 
ATOM     20  C   LIG d   1      23.289  10.289   0.364  0.00  0.00     0.034 A 
ATOM     21 CL   LIG d   1      24.673  10.858   1.211  0.00  0.00    -0.084 Cl
ATOM     22  C   LIG d   1      23.323  10.172  -1.021  0.00  0.00     0.026 A 
ATOM     23  C   LIG d   1      22.196   9.711  -1.708  0.00  0.00     0.031 A 
ENDBRANCH  10  17
ENDBRANCH   4   5
ENDBRANCH   3   4
ENDBRANCH   2   3
ENDBRANCH   1   2
BRANCH   1  24
ATOM     24  C   LIG d   1      17.556   2.437  -5.928  0.00  0.00     0.022 C 
BRANCH  24  25
ATOM     25  C   LIG d   1      16.083   2.123  -5.670  0.00  0.00     0.152 C 
BRANCH  25  26
ATOM     26  N   LIG d   1      15.881   0.680  -5.574  0.00  0.00    -0.261 NA
ATOM     27  C   LIG d   1      15.112   0.193  -4.666  0.00  0.00     0.197 C 
ATOM     28  N   LIG d   1      14.937  -1.159  -4.597  0.00  0.00    -0.190 NA
ATOM     29  N   LIG d   1      14.380   0.893  -3.760  0.00  0.00    -0.271 NA
ATOM     30  C   LIG d   1      15.851  -1.996  -4.985  0.00  0.00     0.180 C 
ATOM     31  N   LIG d   1      15.566  -3.330  -4.914  0.00  0.00    -0.331 N 
ATOM     32  N   LIG d   1      17.057  -1.685  -5.535  0.00  0.00    -0.272 NA
ATOM     33  H   LIG d   1      14.620  -3.495  -4.588  0.00  0.00     0.168 HD
ATOM     34  H   LIG d   1      17.067  -0.699  -5.811  0.00  0.00     0.127 HD
ATOM     35  H   LIG d   1      17.284  -2.278  -6.324  0.00  0.00     0.127 HD
ATOM     36  H   LIG d   1      14.026   1.775  -4.097  0.00  0.00     0.127 HD
ATOM     37  H   LIG d   1      13.655   0.308  -3.363  0.00  0.00     0.127 HD
BRANCH  31  38
ATOM     38  C   LIG d   1      16.409  -4.441  -4.716  0.00  0.00     0.034 A 
ATOM     39  C   LIG d   1      16.628  -5.306  -5.802  0.00  0.00     0.031 A 
ATOM     40  C   LIG d   1      17.493  -6.400  -5.698  0.00  0.00     0.026 A 
ATOM     41  C   LIG d   1      18.159  -6.638  -4.501  0.00  0.00     0.034 A 
ATOM     42 CL   LIG d   1      19.228  -7.979  -4.367  0.00  0.00    -0.084 Cl
ATOM     43  C   LIG d   1      17.964  -5.793  -3.413  0.00  0.00     0.026 A 
ATOM     44  C   LIG d   1      17.098  -4.700  -3.524  0.00  0.00     0.031 A 
ENDBRANCH  31  38
ENDBRANCH  25  26
ENDBRANCH  24  25
ENDBRANCH   1  24
TORSDOF 9
ENDMDL
MODEL 5
REMARK VINA RESULT:      -7.6      3.048      5.825
REMARK  9 active torsions:
REMARK  status: ('A' for Active; 'I' for Inactive)
REMARK    1  A    between atoms: N_3  and  C_17 
REMARK    2  A    between atoms: N_4  and  C_18 
REMARK       I    between atoms: N_5  and  C_19 
REMARK       I    between atoms: N_6  and  C_20 
REMARK       I    between atoms: N_7  and  C_19 
REMARK       I    between atoms: N_8  and  C_20 
REMARK       I    between atoms: N_9  and  C_21 
REMARK    3  A    between atoms: N_9  and  C_23 
REMARK       I    between atoms: N_10  and  C_22 
REMARK    4  A    between atoms: N_10  and  C_24 
REMARK       I    between atoms: N_11  and  C_21 
REMARK       I    between atoms: N_12  and  C_22 
REMARK    5  A    between atoms: C_13  and  C_14 
REMARK    6  A    between atoms: C_13  and  C_15 
REMARK    7  A    between atoms: C_14  and  C_16 
REMARK    8  A    between atoms: C_15  and  C_17 
REMARK    9  A    between atoms: C_16  and  C_18 
ROOT
ATOM      1  C   LIG d   1       4.789   2.252  21.450  0.00  0.00     0.002 C 
ENDROOT
BRANCH   1   2
ATOM      2  C   LIG d   1       3.748   2.432  22.555  0.00  0.00     0.002 C 
BRANCH   2   3
ATOM      3  C   LIG d   1       4.338   3.162  23.761  0.00  0.00     0.022 C 
BRANCH   3   4
ATOM      4  C   LIG d   1       4.822   2.177  24.823  0.00  0.00     0.152 C 
BRANCH   4   5
ATOM      5  N   LIG d   1       6.275   2.054  24.756  0.00  0.00    -0.261 NA
ATOM      6  C   LIG d   1       6.813   0.921  24.479  0.00  0.00     0.197 C 
ATOM      7  N   LIG d   1       8.171   0.851  24.405  0.00  0.00    -0.190 NA
ATOM      8  N   LIG d   1       6.179  -0.246  24.193  0.00  0.00    -0.271 NA
ATOM      9  C   LIG d   1       8.930   1.493  25.232  0.00  0.00     0.180 C 
ATOM     10  N   LIG d   1      10.301   1.460  25.235  0.00  0.00    -0.331 N 
ATOM     11  N   LIG d   1       8.511   2.290  26.262  0.00  0.00    -0.272 NA
ATOM     12  H   LIG d   1      10.699   1.537  26.161  0.00  0.00     0.168 HD
ATOM     13  H   LIG d   1       7.513   2.487  26.141  0.00  0.00     0.127 HD
ATOM     14  H   LIG d   1       9.004   3.175  26.276  0.00  0.00     0.127 HD
ATOM     15  H   LIG d   1       5.340  -0.138  23.644  0.00  0.00     0.127 HD
ATOM     16  H   LIG d   1       6.830  -0.895  23.769  0.00  0.00     0.127 HD
BRANCH  10  17
ATOM     17  C   LIG d   1      11.156   0.908  24.266  0.00  0.00     0.034 A 
ATOM     18  C   LIG d   1      12.153   0.004  24.668  0.00  0.00     0.031 A 
ATOM     19  C   LIG d   1      13.041  -0.554  23.742  0.00  0.00     0.026 A 
ATOM     20  C   LIG d   1      12.949  -0.203  22.399  0.00  0.00     0.034 A 
ATOM     21 CL   LIG d   1      14.042  -0.882  21.258  0.00  0.00    -0.084 Cl
ATOM     22  C   LIG d   1      11.980   0.700  21.978  0.00  0.00     0.026 A 
ATOM     23  C   LIG d   1      11.093   1.252  22.908  0.00  0.00     0.031 A 
ENDBRANCH  10  17
ENDBRANCH   4   5
ENDBRANCH   3   4
ENDBRANCH   2   3
ENDBRANCH   1   2
BRANCH   1  24
ATOM     24  C   LIG d   1       4.178   2.476  20.068  0.00  0.00     0.022 C 
BRANCH  24  25
ATOM     25  C   LIG d   1       5.192   2.195  18.960  0.00  0.00     0.152 C 
BRANCH  25  26
ATOM     26  N   LIG d   1       6.231   1.288  19.441  0.00  0.00    -0.261 NA
ATOM     27  C   LIG d   1       6.709   0.382  18.666  0.00  0.00     0.197 C 
ATOM     28  N   LIG d   1       7.681  -0.453  19.137  0.00  0.00    -0.190 NA
ATOM     29  N   LIG d   1       6.389   0.177  17.361  0.00  0.00    -0.271 NA
ATOM     30  C   LIG d   1       7.775  -0.765  20.395  0.00  0.00     0.180 C 
ATOM     31  N   LIG d   1       8.806  -1.576  20.775  0.00  0.00    -0.331 N 
ATOM     32  N   LIG d   1       6.989  -0.305  21.407  0.00  0.00    -0.272 NA
ATOM     33  H   LIG d   1       9.411  -1.806  19.994  0.00  0.00     0.168 HD
ATOM     34  H   LIG d   1       6.443   0.498  21.083  0.00  0.00     0.127 HD
ATOM     35  H   LIG d   1       7.526  -0.062  22.230  0.00  0.00     0.127 HD
ATOM     36  H   LIG d   1       6.173   1.016  16.844  0.00  0.00     0.127 HD
ATOM     37  H   LIG d   1       7.096  -0.388  16.908  0.00  0.00     0.127 HD
BRANCH  31  38
ATOM     38  C   LIG d   1       8.904  -2.507  21.828  0.00  0.00     0.034 A 
ATOM     39  C   LIG d   1       9.733  -2.186  22.917  0.00  0.00     0.031 A 
ATOM     40  C   LIG d   1       9.839  -3.035  24.024  0.00  0.00     0.026 A 
ATOM     41  C   LIG d   1       9.109  -4.217  24.057  0.00  0.00     0.034 A 
ATOM     42 CL   LIG d   1       9.232  -5.263  25.417  0.00  0.00    -0.084 Cl
ATOM     43  C   LIG d   1       8.276  -4.553  22.995  0.00  0.00     0.026 A 
ATOM     44  C   LIG d   1       8.173  -3.699  21.891  0.00  0.00     0.031 A 
ENDBRANCH  31  38
ENDBRANCH  25  26
ENDBRANCH  24  25
ENDBRANCH   1  24
TORSDOF 9
ENDMDL
MODEL 6
REMARK VINA RESULT:      -7.6      2.101      2.751
REMARK  9 active torsions:
REMARK  status: ('A' for Active; 'I' for Inactive)
REMARK    1  A    between atoms: N_3  and  C_17 
REMARK    2  A    between atoms: N_4  and  C_18 
REMARK       I    between atoms: N_5  and  C_19 
REMARK       I    between atoms: N_6  and  C_20 
REMARK       I    between atoms: N_7  and  C_19 
REMARK       I    between atoms: N_8  and  C_20 
REMARK       I    between atoms: N_9  and  C_21 
REMARK    3  A    between atoms: N_9  and  C_23 
REMARK       I    between atoms: N_10  and  C_22 
REMARK    4  A    between atoms: N_10  and  C_24 
REMARK       I    between atoms: N_11  and  C_21 
REMARK       I    between atoms: N_12  and  C_22 
REMARK    5  A    between atoms: C_13  and  C_14 
REMARK    6  A    between atoms: C_13  and  C_15 
REMARK    7  A    between atoms: C_14  and  C_16 
REMARK    8  A    between atoms: C_15  and  C_17 
REMARK    9  A    between atoms: C_16  and  C_18 
ROOT
ATOM      1  C   LIG d   1       6.989  -5.831  23.298  0.00  0.00     0.002 C 
ENDROOT
BRANCH   1   2
ATOM      2  C   LIG d   1       5.728  -6.519  23.824  0.00  0.00     0.002 C 
BRANCH   2   3
ATOM      3  C   LIG d   1       5.503  -6.207  25.303  0.00  0.00     0.022 C 
BRANCH   3   4
ATOM      4  C   LIG d   1       6.828  -6.088  26.053  0.00  0.00     0.152 C 
BRANCH   4   5
ATOM      5  N   LIG d   1       7.514  -4.864  25.648  0.00  0.00    -0.261 NA
ATOM      6  C   LIG d   1       8.755  -4.697  25.934  0.00  0.00     0.197 C 
ATOM      7  N   LIG d   1       9.365  -3.551  25.522  0.00  0.00    -0.190 NA
ATOM      8  N   LIG d   1       9.579  -5.568  26.573  0.00  0.00    -0.271 NA
ATOM      9  C   LIG d   1       8.760  -2.409  25.561  0.00  0.00     0.180 C 
ATOM     10  N   LIG d   1       9.310  -1.210  25.183  0.00  0.00    -0.331 N 
ATOM     11  N   LIG d   1       7.488  -2.182  26.011  0.00  0.00    -0.272 NA
ATOM     12  H   LIG d   1       8.976  -0.429  25.729  0.00  0.00     0.168 HD
ATOM     13  H   LIG d   1       7.005  -3.081  26.095  0.00  0.00     0.127 HD
ATOM     14  H   LIG d   1       6.961  -1.603  25.367  0.00  0.00     0.127 HD
ATOM     15  H   LIG d   1       9.425  -6.535  26.336  0.00  0.00     0.127 HD
ATOM     16  H   LIG d   1      10.544  -5.292  26.434  0.00  0.00     0.127 HD
BRANCH  10  17
ATOM     17  C   LIG d   1      10.525  -0.988  24.512  0.00  0.00     0.034 A 
ATOM     18  C   LIG d   1      10.858  -1.798  23.414  0.00  0.00     0.031 A 
ATOM     19  C   LIG d   1      12.066  -1.628  22.728  0.00  0.00     0.026 A 
ATOM     20  C   LIG d   1      12.963  -0.649  23.142  0.00  0.00     0.034 A 
ATOM     21 CL   LIG d   1      14.451  -0.440  22.306  0.00  0.00    -0.084 Cl
ATOM     22  C   LIG d   1      12.662   0.156  24.235  0.00  0.00     0.026 A 
ATOM     23  C   LIG d   1      11.452  -0.017  24.914  0.00  0.00     0.031 A 
ENDBRANCH  10  17
ENDBRANCH   4   5
ENDBRANCH   3   4
ENDBRANCH   2   3
ENDBRANCH   1   2
BRANCH   1  24
ATOM     24  C   LIG d   1       7.529  -6.536  22.054  0.00  0.00     0.022 C 
BRANCH  24  25
ATOM     25  C   LIG d   1       6.870  -6.001  20.783  0.00  0.00     0.152 C 
BRANCH  25  26
ATOM     26  N   LIG d   1       7.049  -4.555  20.690  0.00  0.00    -0.261 NA
ATOM     27  C   LIG d   1       7.610  -4.037  19.656  0.00  0.00     0.197 C 
ATOM     28  N   LIG d   1       7.764  -2.682  19.589  0.00  0.00    -0.190 NA
ATOM     29  N   LIG d   1       8.040  -4.698  18.549  0.00  0.00    -0.271 NA
ATOM     30  C   LIG d   1       7.892  -1.948  20.653  0.00  0.00     0.180 C 
ATOM     31  N   LIG d   1       8.001  -0.597  20.485  0.00  0.00    -0.331 N 
ATOM     32  N   LIG d   1       7.856  -2.375  21.945  0.00  0.00    -0.272 NA
ATOM     33  H   LIG d   1       7.924  -0.332  19.509  0.00  0.00     0.168 HD
ATOM     34  H   LIG d   1       7.491  -3.331  21.982  0.00  0.00     0.127 HD
ATOM     35  H   LIG d   1       7.309  -1.762  22.537  0.00  0.00     0.127 HD
ATOM     36  H   LIG d   1       7.483  -5.499  18.293  0.00  0.00     0.127 HD
ATOM     37  H   LIG d   1       8.171  -4.053  17.780  0.00  0.00     0.127 HD
BRANCH  31  38
ATOM     38  C   LIG d   1       8.663   0.377  21.259  0.00  0.00     0.034 A 
ATOM     39  C   LIG d   1       9.989   0.698  20.922  0.00  0.00     0.031 A 
ATOM     40  C   LIG d   1      10.693   1.692  21.611  0.00  0.00     0.026 A 
ATOM     41  C   LIG d   1      10.072   2.384  22.645  0.00  0.00     0.034 A 
ATOM     42 CL   LIG d   1      10.930   3.609  23.493  0.00  0.00    -0.084 Cl
ATOM     43  C   LIG d   1       8.758   2.089  22.993  0.00  0.00     0.026 A 
ATOM     44  C   LIG d   1       8.059   1.094  22.300  0.00  0.00     0.031 A 
ENDBRANCH  31  38
ENDBRANCH  25  26
ENDBRANCH  24  25
ENDBRANCH   1  24
TORSDOF 9
ENDMDL
MODEL 7
REMARK VINA RESULT:      -7.0      3.976      6.929
REMARK  9 active torsions:
REMARK  status: ('A' for Active; 'I' for Inactive)
REMARK    1  A    between atoms: N_3  and  C_17 
REMARK    2  A    between atoms: N_4  and  C_18 
REMARK       I    between atoms: N_5  and  C_19 
REMARK       I    between atoms: N_6  and  C_20 
REMARK       I    between atoms: N_7  and  C_19 
REMARK       I    between atoms: N_8  and  C_20 
REMARK       I    between atoms: N_9  and  C_21 
REMARK    3  A    between atoms: N_9  and  C_23 
REMARK       I    between atoms: N_10  and  C_22 
REMARK    4  A    between atoms: N_10  and  C_24 
REMARK       I    between atoms: N_11  and  C_21 
REMARK       I    between atoms: N_12  and  C_22 
REMARK    5  A    between atoms: C_13  and  C_14 
REMARK    6  A    between atoms: C_13  and  C_15 
REMARK    7  A    between atoms: C_14  and  C_16 
REMARK    8  A    between atoms: C_15  and  C_17 
REMARK    9  A    between atoms: C_16  and  C_18 
ROOT
ATOM      1  C   LIG d   1       5.732   1.647  19.522  0.00  0.00     0.002 C 
ENDROOT
BRANCH   1   2
ATOM      2  C   LIG d   1       4.474   2.494  19.719  0.00  0.00     0.002 C 
BRANCH   2   3
ATOM      3  C   LIG d   1       4.458   3.149  21.100  0.00  0.00     0.022 C 
BRANCH   3   4
ATOM      4  C   LIG d   1       5.546   2.570  22.002  0.00  0.00     0.152 C 
BRANCH   4   5
ATOM      5  N   LIG d   1       6.582   3.573  22.231  0.00  0.00    -0.261 NA
ATOM      6  C   LIG d   1       6.717   4.105  23.392  0.00  0.00     0.197 C 
ATOM      7  N   LIG d   1       7.707   5.022  23.572  0.00  0.00    -0.190 NA
ATOM      8  N   LIG d   1       6.006   3.826  24.516  0.00  0.00    -0.271 NA
ATOM      9  C   LIG d   1       7.994   5.898  22.665  0.00  0.00     0.180 C 
ATOM     10  N   LIG d   1       8.961   6.864  22.777  0.00  0.00    -0.331 N 
ATOM     11  N   LIG d   1       7.372   6.042  21.455  0.00  0.00    -0.272 NA
ATOM     12  H   LIG d   1       8.724   7.723  22.300  0.00  0.00     0.168 HD
ATOM     13  H   LIG d   1       6.802   5.210  21.277  0.00  0.00     0.127 HD
ATOM     14  H   LIG d   1       8.041   6.130  20.698  0.00  0.00     0.127 HD
ATOM     15  H   LIG d   1       5.772   2.851  24.627  0.00  0.00     0.127 HD
ATOM     16  H   LIG d   1       6.488   4.196  25.327  0.00  0.00     0.127 HD
BRANCH  10  17
ATOM     17  C   LIG d   1       9.949   6.990  23.769  0.00  0.00     0.034 A 
ATOM     18  C   LIG d   1      11.103   6.194  23.691  0.00  0.00     0.031 A 
ATOM     19  C   LIG d   1      12.102   6.270  24.667  0.00  0.00     0.026 A 
ATOM     20  C   LIG d   1      11.952   7.138  25.743  0.00  0.00     0.034 A 
ATOM     21 CL   LIG d   1      13.175   7.231  26.949  0.00  0.00    -0.084 Cl
ATOM     22  C   LIG d   1      10.812   7.927  25.851  0.00  0.00     0.026 A 
ATOM     23  C   LIG d   1       9.818   7.849  24.870  0.00  0.00     0.031 A 
ENDBRANCH  10  17
ENDBRANCH   4   5
ENDBRANCH   3   4
ENDBRANCH   2   3
ENDBRANCH   1   2
BRANCH   1  24
ATOM     24  C   LIG d   1       6.137   1.587  18.050  0.00  0.00     0.022 C 
BRANCH  24  25
ATOM     25  C   LIG d   1       6.702   0.215  17.686  0.00  0.00     0.152 C 
BRANCH  25  26
ATOM     26  N   LIG d   1       7.448  -0.341  18.811  0.00  0.00    -0.261 NA
ATOM     27  C   LIG d   1       7.249  -1.556  19.183  0.00  0.00     0.197 C 
ATOM     28  N   LIG d   1       7.961  -2.055  20.236  0.00  0.00    -0.190 NA
ATOM     29  N   LIG d   1       6.421  -2.459  18.597  0.00  0.00    -0.271 NA
ATOM     30  C   LIG d   1       8.395  -1.297  21.199  0.00  0.00     0.180 C 
ATOM     31  N   LIG d   1       9.131  -1.884  22.188  0.00  0.00    -0.331 N 
ATOM     32  N   LIG d   1       8.257   0.053  21.294  0.00  0.00    -0.272 NA
ATOM     33  H   LIG d   1       9.280  -2.871  22.010  0.00  0.00     0.168 HD
ATOM     34  H   LIG d   1       7.955   0.435  20.393  0.00  0.00     0.127 HD
ATOM     35  H   LIG d   1       9.109   0.505  21.605  0.00  0.00     0.127 HD
ATOM     36  H   LIG d   1       6.343  -2.372  17.596  0.00  0.00     0.127 HD
ATOM     37  H   LIG d   1       6.659  -3.399  18.889  0.00  0.00     0.127 HD
BRANCH  31  38
ATOM     38  C   LIG d   1       9.273  -1.551  23.550  0.00  0.00     0.034 A 
ATOM     39  C   LIG d   1       8.298  -2.019  24.448  0.00  0.00     0.031 A 
ATOM     40  C   LIG d   1       8.399  -1.774  25.822  0.00  0.00     0.026 A 
ATOM     41  C   LIG d   1       9.487  -1.062  26.315  0.00  0.00     0.034 A 
ATOM     42 CL   LIG d   1       9.619  -0.762  28.004  0.00  0.00    -0.084 Cl
ATOM     43  C   LIG d   1      10.468  -0.595  25.448  0.00  0.00     0.026 A 
ATOM     44  C   LIG d   1      10.361  -0.843  24.074  0.00  0.00     0.031 A 
ENDBRANCH  31  38
ENDBRANCH  25  26
ENDBRANCH  24  25
ENDBRANCH   1  24
TORSDOF 9
ENDMDL
MODEL 8
REMARK VINA RESULT:      -6.8      4.892      9.840
REMARK  9 active torsions:
REMARK  status: ('A' for Active; 'I' for Inactive)
REMARK    1  A    between atoms: N_3  and  C_17 
REMARK    2  A    between atoms: N_4  and  C_18 
REMARK       I    between atoms: N_5  and  C_19 
REMARK       I    between atoms: N_6  and  C_20 
REMARK       I    between atoms: N_7  and  C_19 
REMARK       I    between atoms: N_8  and  C_20 
REMARK       I    between atoms: N_9  and  C_21 
REMARK    3  A    between atoms: N_9  and  C_23 
REMARK       I    between atoms: N_10  and  C_22 
REMARK    4  A    between atoms: N_10  and  C_24 
REMARK       I    between atoms: N_11  and  C_21 
REMARK       I    between atoms: N_12  and  C_22 
REMARK    5  A    between atoms: C_13  and  C_14 
REMARK    6  A    between atoms: C_13  and  C_15 
REMARK    7  A    between atoms: C_14  and  C_16 
REMARK    8  A    between atoms: C_15  and  C_17 
REMARK    9  A    between atoms: C_16  and  C_18 
ROOT
ATOM      1  C   LIG d   1       7.290   0.456  20.025  0.00  0.00     0.002 C 
ENDROOT
BRANCH   1   2
ATOM      2  C   LIG d   1       6.488   0.381  18.725  0.00  0.00     0.002 C 
BRANCH   2   3
ATOM      3  C   LIG d   1       5.754   1.693  18.450  0.00  0.00     0.022 C 
BRANCH   3   4
ATOM      4  C   LIG d   1       5.457   2.444  19.746  0.00  0.00     0.152 C 
BRANCH   4   5
ATOM      5  N   LIG d   1       4.079   2.188  20.158  0.00  0.00    -0.261 NA
ATOM      6  C   LIG d   1       3.122   2.903  19.685  0.00  0.00     0.197 C 
ATOM      7  N   LIG d   1       1.849   2.621  20.078  0.00  0.00    -0.190 NA
ATOM      8  N   LIG d   1       3.215   3.908  18.776  0.00  0.00    -0.271 NA
ATOM      9  C   LIG d   1       1.573   2.289  21.296  0.00  0.00     0.180 C 
ATOM     10  N   LIG d   1       0.318   2.009  21.774  0.00  0.00    -0.331 N 
ATOM     11  N   LIG d   1       2.464   2.189  22.329  0.00  0.00    -0.272 NA
ATOM     12  H   LIG d   1       0.185   2.288  22.736  0.00  0.00     0.168 HD
ATOM     13  H   LIG d   1       3.414   2.190  21.945  0.00  0.00     0.127 HD
ATOM     14  H   LIG d   1       2.339   1.328  22.850  0.00  0.00     0.127 HD
ATOM     15  H   LIG d   1       3.895   3.748  18.048  0.00  0.00     0.127 HD
ATOM     16  H   LIG d   1       2.298   4.115  18.399  0.00  0.00     0.127 HD
BRANCH  10  17
ATOM     17  C   LIG d   1      -0.868   1.830  21.040  0.00  0.00     0.034 A 
ATOM     18  C   LIG d   1      -1.610   2.958  20.654  0.00  0.00     0.031 A 
ATOM     19  C   LIG d   1      -2.807   2.828  19.941  0.00  0.00     0.026 A 
ATOM     20  C   LIG d   1      -3.283   1.563  19.616  0.00  0.00     0.034 A 
ATOM     21 CL   LIG d   1      -4.757   1.398  18.746  0.00  0.00    -0.084 Cl
ATOM     22  C   LIG d   1      -2.574   0.430  19.999  0.00  0.00     0.026 A 
ATOM     23  C   LIG d   1      -1.377   0.567  20.709  0.00  0.00     0.031 A 
ENDBRANCH  10  17
ENDBRANCH   4   5
ENDBRANCH   3   4
ENDBRANCH   2   3
ENDBRANCH   1   2
BRANCH   1  24
ATOM     24  C   LIG d   1       8.749   0.060  19.802  0.00  0.00     0.022 C 
BRANCH  24  25
ATOM     25  C   LIG d   1       8.857  -1.293  19.100  0.00  0.00     0.152 C 
BRANCH  25  26
ATOM     26  N   LIG d   1       8.756  -2.377  20.073  0.00  0.00    -0.261 NA
ATOM     27  C   LIG d   1       7.809  -3.242  19.983  0.00  0.00     0.197 C 
ATOM     28  N   LIG d   1       7.737  -4.249  20.903  0.00  0.00    -0.190 NA
ATOM     29  N   LIG d   1       6.861  -3.311  19.012  0.00  0.00    -0.271 NA
ATOM     30  C   LIG d   1       8.179  -4.110  22.117  0.00  0.00     0.180 C 
ATOM     31  N   LIG d   1       8.098  -5.188  22.951  0.00  0.00    -0.331 N 
ATOM     32  N   LIG d   1       8.793  -3.013  22.637  0.00  0.00    -0.272 NA
ATOM     33  H   LIG d   1       7.721  -6.002  22.478  0.00  0.00     0.168 HD
ATOM     34  H   LIG d   1       9.065  -2.377  21.881  0.00  0.00     0.127 HD
ATOM     35  H   LIG d   1       9.597  -3.255  23.204  0.00  0.00     0.127 HD
ATOM     36  H   LIG d   1       7.173  -3.023  18.098  0.00  0.00     0.127 HD
ATOM     37  H   LIG d   1       6.427  -4.226  19.005  0.00  0.00     0.127 HD
BRANCH  31  38
ATOM     38  C   LIG d   1       7.952  -5.259  24.351  0.00  0.00     0.034 A 
ATOM     39  C   LIG d   1       9.116  -5.230  25.138  0.00  0.00     0.031 A 
ATOM     40  C   LIG d   1       9.049  -5.242  26.536  0.00  0.00     0.026 A 
ATOM     41  C   LIG d   1       7.809  -5.277  27.164  0.00  0.00     0.034 A 
ATOM     42 CL   LIG d   1       7.719  -5.288  28.881  0.00  0.00    -0.084 Cl
ATOM     43  C   LIG d   1       6.643  -5.299  26.407  0.00  0.00     0.026 A 
ATOM     44  C   LIG d   1       6.717  -5.285  25.009  0.00  0.00     0.031 A 
ENDBRANCH  31  38
ENDBRANCH  25  26
ENDBRANCH  24  25
ENDBRANCH   1  24
TORSDOF 9
ENDMDL
MODEL 9
REMARK VINA RESULT:      -6.8     31.617     35.406
REMARK  9 active torsions:
REMARK  status: ('A' for Active; 'I' for Inactive)
REMARK    1  A    between atoms: N_3  and  C_17 
REMARK    2  A    between atoms: N_4  and  C_18 
REMARK       I    between atoms: N_5  and  C_19 
REMARK       I    between atoms: N_6  and  C_20 
REMARK       I    between atoms: N_7  and  C_19 
REMARK       I    between atoms: N_8  and  C_20 
REMARK       I    between atoms: N_9  and  C_21 
REMARK    3  A    between atoms: N_9  and  C_23 
REMARK       I    between atoms: N_10  and  C_22 
REMARK    4  A    between atoms: N_10  and  C_24 
REMARK       I    between atoms: N_11  and  C_21 
REMARK       I    between atoms: N_12  and  C_22 
REMARK    5  A    between atoms: C_13  and  C_14 
REMARK    6  A    between atoms: C_13  and  C_15 
REMARK    7  A    between atoms: C_14  and  C_16 
REMARK    8  A    between atoms: C_15  and  C_17 
REMARK    9  A    between atoms: C_16  and  C_18 
ROOT
ATOM      1  C   LIG d   1      13.099  -1.527 -14.596  0.00  0.00     0.002 C 
ENDROOT
BRANCH   1   2
ATOM      2  C   LIG d   1      11.861  -1.226 -13.751  0.00  0.00     0.002 C 
BRANCH   2   3
ATOM      3  C   LIG d   1      12.126  -1.483 -12.268  0.00  0.00     0.022 C 
BRANCH   3   4
ATOM      4  C   LIG d   1      11.603  -2.852 -11.840  0.00  0.00     0.152 C 
BRANCH   4   5
ATOM      5  N   LIG d   1      11.977  -3.111 -10.453  0.00  0.00    -0.261 NA
ATOM      6  C   LIG d   1      13.079  -3.713 -10.184  0.00  0.00     0.197 C 
ATOM      7  N   LIG d   1      13.402  -3.918  -8.877  0.00  0.00    -0.190 NA
ATOM      8  N   LIG d   1      14.020  -4.143 -11.065  0.00  0.00    -0.271 NA
ATOM      9  C   LIG d   1      12.511  -4.249  -8.002  0.00  0.00     0.180 C 
ATOM     10  N   LIG d   1      12.758  -4.492  -6.674  0.00  0.00    -0.331 N 
ATOM     11  N   LIG d   1      11.179  -4.450  -8.240  0.00  0.00    -0.272 NA
ATOM     12  H   LIG d   1      12.158  -5.202  -6.280  0.00  0.00     0.168 HD
ATOM     13  H   LIG d   1      10.950  -4.074  -9.165  0.00  0.00     0.127 HD
ATOM     14  H   LIG d   1      10.600  -3.973  -7.558  0.00  0.00     0.127 HD
ATOM     15  H   LIG d   1      14.165  -3.527 -11.850  0.00  0.00     0.127 HD
ATOM     16  H   LIG d   1      14.883  -4.342 -10.573  0.00  0.00     0.127 HD
BRANCH  10  17
ATOM     17  C   LIG d   1      13.942  -4.251  -5.956  0.00  0.00     0.034 A 
ATOM     18  C   LIG d   1      14.725  -5.341  -5.542  0.00  0.00     0.031 A 
ATOM     19  C   LIG d   1      15.900  -5.151  -4.807  0.00  0.00     0.026 A 
ATOM     20  C   LIG d   1      16.300  -3.863  -4.466  0.00  0.00     0.034 A 
ATOM     21 CL   LIG d   1      17.741  -3.625  -3.557  0.00  0.00    -0.084 Cl
ATOM     22  C   LIG d   1      15.535  -2.769  -4.851  0.00  0.00     0.026 A 
ATOM     23  C   LIG d   1      14.363  -2.965  -5.589  0.00  0.00     0.031 A 
ENDBRANCH  10  17
ENDBRANCH   4   5
ENDBRANCH   3   4
ENDBRANCH   2   3
ENDBRANCH   1   2
BRANCH   1  24
ATOM     24  C   LIG d   1      14.254  -0.590 -14.243  0.00  0.00     0.022 C 
BRANCH  24  25
ATOM     25  C   LIG d   1      15.189  -0.388 -15.436  0.00  0.00     0.152 C 
BRANCH  25  26
ATOM     26  N   LIG d   1      16.180   0.641 -15.134  0.00  0.00    -0.261 NA
ATOM     27  C   LIG d   1      15.921   1.878 -15.370  0.00  0.00     0.197 C 
ATOM     28  N   LIG d   1      16.863   2.823 -15.077  0.00  0.00    -0.190 NA
ATOM     29  N   LIG d   1      14.755   2.388 -15.845  0.00  0.00    -0.271 NA
ATOM     30  C   LIG d   1      18.135   2.561 -15.098  0.00  0.00     0.180 C 
ATOM     31  N   LIG d   1      18.997   3.562 -14.751  0.00  0.00    -0.331 N 
ATOM     32  N   LIG d   1      18.713   1.357 -15.360  0.00  0.00    -0.272 NA
ATOM     33  H   LIG d   1      18.503   4.404 -14.474  0.00  0.00     0.168 HD
ATOM     34  H   LIG d   1      18.004   0.618 -15.324  0.00  0.00     0.127 HD
ATOM     35  H   LIG d   1      19.475   1.150 -14.726  0.00  0.00     0.127 HD
ATOM     36  H   LIG d   1      13.927   1.898 -15.543  0.00  0.00     0.127 HD
ATOM     37  H   LIG d   1      14.705   3.383 -15.667  0.00  0.00     0.127 HD
BRANCH  31  38
ATOM     38  C   LIG d   1      20.320   3.821 -15.162  0.00  0.00     0.034 A 
ATOM     39  C   LIG d   1      21.308   3.938 -14.170  0.00  0.00     0.031 A 
ATOM     40  C   LIG d   1      22.652   4.141 -14.503  0.00  0.00     0.026 A 
ATOM     41  C   LIG d   1      23.024   4.221 -15.840  0.00  0.00     0.034 A 
ATOM     42 CL   LIG d   1      24.675   4.466 -16.256  0.00  0.00    -0.084 Cl
ATOM     43  C   LIG d   1      22.066   4.101 -16.840  0.00  0.00     0.026 A 
ATOM     44  C   LIG d   1      20.724   3.898 -16.501  0.00  0.00     0.031 A 
ENDBRANCH  31  38
ENDBRANCH  25  26
ENDBRANCH  24  25
ENDBRANCH   1  24
TORSDOF 9
ENDMDL
