MODEL 1
REMARK VINA RESULT:      -5.0      0.000      0.000
REMARK  1 active torsions:
REMARK  status: ('A' for Active; 'I' for Inactive)
REMARK    1  A    between atoms: C_3  and  C_7 
ROOT
ATOM      1  N   LIG d   1       5.156  27.048 -11.639  0.00  0.00    -0.067 N 
ATOM      2  C   LIG d   1       5.797  27.758 -10.456  0.00  0.00     0.222 C 
ATOM      3  C   LIG d   1       6.792  26.702  -9.967  0.00  0.00     0.040 C 
ATOM      4  C   LIG d   1       7.187  25.874 -11.187  0.00  0.00     0.030 C 
ATOM      5  C   LIG d   1       6.254  26.277 -12.316  0.00  0.00     0.235 C 
ATOM      6  C   LIG d   1       4.335  27.886 -12.568  0.00  0.00     0.270 C 
ATOM      7  H   LIG d   1       4.513  26.354 -11.236  0.00  0.00     0.280 HD
ENDROOT
BRANCH   2   8
ATOM      8  C   LIG d   1       6.374  29.119 -10.757  0.00  0.00    -0.010 A 
ATOM      9  C   LIG d   1       7.572  29.231 -11.480  0.00  0.00     0.012 A 
ATOM     10  C   LIG d   1       8.126  30.484 -11.735  0.00  0.00     0.020 A 
ATOM     11  C   LIG d   1       7.470  31.599 -11.253  0.00  0.00     0.116 A 
ATOM     12  N   LIG d   1       6.320  31.535 -10.550  0.00  0.00    -0.273 NA
ATOM     13  C   LIG d   1       5.795  30.311 -10.330  0.00  0.00     0.125 A 
ENDBRANCH   2   8
TORSDOF 1
ENDMDL
MODEL 2
REMARK VINA RESULT:      -4.8     26.016     27.114
REMARK  1 active torsions:
REMARK  status: ('A' for Active; 'I' for Inactive)
REMARK    1  A    between atoms: C_3  and  C_7 
ROOT
ATOM      1  N   LIG d   1      19.795   5.618  -2.835  0.00  0.00    -0.067 N 
ATOM      2  C   LIG d   1      18.709   6.356  -3.604  0.00  0.00     0.222 C 
ATOM      3  C   LIG d   1      19.227   7.797  -3.560  0.00  0.00     0.040 C 
ATOM      4  C   LIG d   1      20.749   7.713  -3.477  0.00  0.00     0.030 C 
ATOM      5  C   LIG d   1      21.099   6.255  -3.226  0.00  0.00     0.235 C 
ATOM      6  C   LIG d   1      19.793   4.125  -2.925  0.00  0.00     0.270 C 
ATOM      7  H   LIG d   1      19.642   5.845  -1.844  0.00  0.00     0.280 HD
ENDROOT
BRANCH   2   8
ATOM      8  C   LIG d   1      18.404   5.806  -4.975  0.00  0.00    -0.010 A 
ATOM      9  C   LIG d   1      18.831   6.496  -6.121  0.00  0.00     0.012 A 
ATOM     10  C   LIG d   1      18.526   6.009  -7.391  0.00  0.00     0.020 A 
ATOM     11  C   LIG d   1      17.792   4.843  -7.484  0.00  0.00     0.116 A 
ATOM     12  N   LIG d   1      17.358   4.153  -6.409  0.00  0.00    -0.273 NA
ATOM     13  C   LIG d   1      17.680   4.636  -5.190  0.00  0.00     0.125 A 
ENDBRANCH   2   8
TORSDOF 1
ENDMDL
MODEL 3
REMARK VINA RESULT:      -4.8      1.971      4.079
REMARK  1 active torsions:
REMARK  status: ('A' for Active; 'I' for Inactive)
REMARK    1  A    between atoms: C_3  and  C_7 
ROOT
ATOM      1  N   LIG d   1       6.389  29.810 -13.812  0.00  0.00    -0.067 N 
ATOM      2  C   LIG d   1       7.364  28.657 -13.627  0.00  0.00     0.222 C 
ATOM      3  C   LIG d   1       8.711  29.362 -13.808  0.00  0.00     0.040 C 
ATOM      4  C   LIG d   1       8.512  30.808 -13.358  0.00  0.00     0.030 C 
ATOM      5  C   LIG d   1       7.019  31.007 -13.157  0.00  0.00     0.235 C 
ATOM      6  C   LIG d   1       4.969  29.568 -13.406  0.00  0.00     0.270 C 
ATOM      7  H   LIG d   1       6.369  30.003 -14.822  0.00  0.00     0.280 HD
ENDROOT
BRANCH   2   8
ATOM      8  C   LIG d   1       7.197  27.869 -12.352  0.00  0.00    -0.010 A 
ATOM      9  C   LIG d   1       6.854  26.509 -12.405  0.00  0.00     0.012 A 
ATOM     10  C   LIG d   1       6.668  25.783 -11.230  0.00  0.00     0.020 A 
ATOM     11  C   LIG d   1       6.823  26.439 -10.025  0.00  0.00     0.116 A 
ATOM     12  N   LIG d   1       7.147  27.746  -9.930  0.00  0.00    -0.273 NA
ATOM     13  C   LIG d   1       7.337  28.423 -11.082  0.00  0.00     0.125 A 
ENDBRANCH   2   8
TORSDOF 1
ENDMDL
MODEL 4
REMARK VINA RESULT:      -4.8     25.615     26.895
REMARK  1 active torsions:
REMARK  status: ('A' for Active; 'I' for Inactive)
REMARK    1  A    between atoms: C_3  and  C_7 
ROOT
ATOM      1  N   LIG d   1      19.418   3.922  -6.013  0.00  0.00    -0.067 N 
ATOM      2  C   LIG d   1      19.564   5.381  -6.420  0.00  0.00     0.222 C 
ATOM      3  C   LIG d   1      18.438   5.527  -7.448  0.00  0.00     0.040 C 
ATOM      4  C   LIG d   1      17.354   4.526  -7.055  0.00  0.00     0.030 C 
ATOM      5  C   LIG d   1      17.942   3.641  -5.969  0.00  0.00     0.235 C 
ATOM      6  C   LIG d   1      20.160   3.482  -4.791  0.00  0.00     0.270 C 
ATOM      7  H   LIG d   1      19.800   3.372  -6.793  0.00  0.00     0.280 HD
ENDROOT
BRANCH   2   8
ATOM      8  C   LIG d   1      19.553   6.371  -5.283  0.00  0.00    -0.010 A 
ATOM      9  C   LIG d   1      18.357   6.643  -4.598  0.00  0.00     0.012 A 
ATOM     10  C   LIG d   1      18.333   7.578  -3.566  0.00  0.00     0.020 A 
ATOM     11  C   LIG d   1      19.509   8.229  -3.247  0.00  0.00     0.116 A 
ATOM     12  N   LIG d   1      20.677   8.002  -3.883  0.00  0.00    -0.273 NA
ATOM     13  C   LIG d   1      20.678   7.079  -4.868  0.00  0.00     0.125 A 
ENDBRANCH   2   8
TORSDOF 1
ENDMDL
MODEL 5
REMARK VINA RESULT:      -4.6     46.933     48.388
REMARK  1 active torsions:
REMARK  status: ('A' for Active; 'I' for Inactive)
REMARK    1  A    between atoms: C_3  and  C_7 
ROOT
ATOM      1  N   LIG d   1       8.338  -3.966  25.861  0.00  0.00    -0.067 N 
ATOM      2  C   LIG d   1       8.740  -3.480  24.476  0.00  0.00     0.222 C 
ATOM      3  C   LIG d   1      10.264  -3.614  24.534  0.00  0.00     0.040 C 
ATOM      4  C   LIG d   1      10.567  -4.752  25.507  0.00  0.00     0.030 C 
ATOM      5  C   LIG d   1       9.258  -5.108  26.192  0.00  0.00     0.235 C 
ATOM      6  C   LIG d   1       6.889  -4.267  26.079  0.00  0.00     0.270 C 
ATOM      7  H   LIG d   1       8.572  -3.202  26.507  0.00  0.00     0.280 HD
ENDROOT
BRANCH   2   8
ATOM      8  C   LIG d   1       8.058  -4.177  23.326  0.00  0.00    -0.010 A 
ATOM      9  C   LIG d   1       8.655  -5.300  22.731  0.00  0.00     0.012 A 
ATOM     10  C   LIG d   1       8.046  -5.931  21.648  0.00  0.00     0.020 A 
ATOM     11  C   LIG d   1       6.853  -5.417  21.179  0.00  0.00     0.116 A 
ATOM     12  N   LIG d   1       6.249  -4.338  21.719  0.00  0.00    -0.273 NA
ATOM     13  C   LIG d   1       6.851  -3.755  22.777  0.00  0.00     0.125 A 
ENDBRANCH   2   8
TORSDOF 1
ENDMDL
MODEL 6
REMARK VINA RESULT:      -4.6     24.999     26.202
REMARK  1 active torsions:
REMARK  status: ('A' for Active; 'I' for Inactive)
REMARK    1  A    between atoms: C_3  and  C_7 
ROOT
ATOM      1  N   LIG d   1      21.273   8.965  -0.004  0.00  0.00    -0.067 N 
ATOM      2  C   LIG d   1      21.336   9.280  -1.491  0.00  0.00     0.222 C 
ATOM      3  C   LIG d   1      19.896   9.717  -1.773  0.00  0.00     0.040 C 
ATOM      4  C   LIG d   1      19.356  10.312  -0.475  0.00  0.00     0.030 C 
ATOM      5  C   LIG d   1      20.374  10.001   0.610  0.00  0.00     0.235 C 
ATOM      6  C   LIG d   1      22.578   8.791   0.707  0.00  0.00     0.270 C 
ATOM      7  H   LIG d   1      20.783   8.065   0.073  0.00  0.00     0.280 HD
ENDROOT
BRANCH   2   8
ATOM      8  C   LIG d   1      22.414  10.254  -1.899  0.00  0.00    -0.010 A 
ATOM      9  C   LIG d   1      23.626   9.781  -2.426  0.00  0.00     0.012 A 
ATOM     10  C   LIG d   1      24.637  10.673  -2.777  0.00  0.00     0.020 A 
ATOM     11  C   LIG d   1      24.413  12.023  -2.584  0.00  0.00     0.116 A 
ATOM     12  N   LIG d   1      23.266  12.517  -2.076  0.00  0.00    -0.273 NA
ATOM     13  C   LIG d   1      22.296  11.634  -1.759  0.00  0.00     0.125 A 
ENDBRANCH   2   8
TORSDOF 1
ENDMDL
MODEL 7
REMARK VINA RESULT:      -4.5      2.138      3.616
REMARK  1 active torsions:
REMARK  status: ('A' for Active; 'I' for Inactive)
REMARK    1  A    between atoms: C_3  and  C_7 
ROOT
ATOM      1  N   LIG d   1       6.658  28.926 -10.349  0.00  0.00    -0.067 N 
ATOM      2  C   LIG d   1       7.340  27.884 -11.225  0.00  0.00     0.222 C 
ATOM      3  C   LIG d   1       7.056  26.596 -10.447  0.00  0.00     0.040 C 
ATOM      4  C   LIG d   1       5.743  26.816  -9.700  0.00  0.00     0.030 C 
ATOM      5  C   LIG d   1       5.396  28.289  -9.839  0.00  0.00     0.235 C 
ATOM      6  C   LIG d   1       6.460  30.284 -10.943  0.00  0.00     0.270 C 
ATOM      7  H   LIG d   1       7.272  29.055  -9.536  0.00  0.00     0.280 HD
ENDROOT
BRANCH   2   8
ATOM      8  C   LIG d   1       6.921  27.886 -12.674  0.00  0.00    -0.010 A 
ATOM      9  C   LIG d   1       6.084  26.872 -13.166  0.00  0.00     0.012 A 
ATOM     10  C   LIG d   1       5.718  26.850 -14.510  0.00  0.00     0.020 A 
ATOM     11  C   LIG d   1       6.205  27.845 -15.335  0.00  0.00     0.116 A 
ATOM     12  N   LIG d   1       7.015  28.834 -14.904  0.00  0.00    -0.273 NA
ATOM     13  C   LIG d   1       7.342  28.842 -13.595  0.00  0.00     0.125 A 
ENDBRANCH   2   8
TORSDOF 1
ENDMDL
MODEL 8
REMARK VINA RESULT:      -4.5     19.673     21.930
REMARK  1 active torsions:
REMARK  status: ('A' for Active; 'I' for Inactive)
REMARK    1  A    between atoms: C_3  and  C_7 
ROOT
ATOM      1  N   LIG d   1       0.237  11.122  -4.118  0.00  0.00    -0.067 N 
ATOM      2  C   LIG d   1       0.203   9.603  -4.026  0.00  0.00     0.222 C 
ATOM      3  C   LIG d   1       1.225   9.209  -5.096  0.00  0.00     0.040 C 
ATOM      4  C   LIG d   1       2.234  10.352  -5.181  0.00  0.00     0.030 C 
ATOM      5  C   LIG d   1       1.672  11.499  -4.358  0.00  0.00     0.235 C 
ATOM      6  C   LIG d   1      -0.417  11.882  -3.007  0.00  0.00     0.270 C 
ATOM      7  H   LIG d   1      -0.279  11.364  -4.973  0.00  0.00     0.280 HD
ENDROOT
BRANCH   2   8
ATOM      8  C   LIG d   1       0.435   9.035  -2.648  0.00  0.00    -0.010 A 
ATOM      9  C   LIG d   1      -0.582   8.312  -2.005  0.00  0.00     0.012 A 
ATOM     10  C   LIG d   1      -0.384   7.809  -0.721  0.00  0.00     0.020 A 
ATOM     11  C   LIG d   1       0.828   8.050  -0.104  0.00  0.00     0.116 A 
ATOM     12  N   LIG d   1       1.828   8.745  -0.685  0.00  0.00    -0.273 NA
ATOM     13  C   LIG d   1       1.619   9.207  -1.935  0.00  0.00     0.125 A 
ENDBRANCH   2   8
TORSDOF 1
ENDMDL
MODEL 9
REMARK VINA RESULT:      -4.4     25.133     26.290
REMARK  1 active torsions:
REMARK  status: ('A' for Active; 'I' for Inactive)
REMARK    1  A    between atoms: C_3  and  C_7 
ROOT
ATOM      1  N   LIG d   1      20.599  10.504  -0.329  0.00  0.00    -0.067 N 
ATOM      2  C   LIG d   1      20.938  10.416  -1.810  0.00  0.00     0.222 C 
ATOM      3  C   LIG d   1      22.431  10.755  -1.804  0.00  0.00     0.040 C 
ATOM      4  C   LIG d   1      22.977  10.303  -0.452  0.00  0.00     0.030 C 
ATOM      5  C   LIG d   1      21.779   9.938   0.409  0.00  0.00     0.235 C 
ATOM      6  C   LIG d   1      19.282   9.939   0.099  0.00  0.00     0.270 C 
ATOM      7  H   LIG d   1      20.566  11.507  -0.107  0.00  0.00     0.280 HD
ENDROOT
BRANCH   2   8
ATOM      8  C   LIG d   1      20.557   9.121  -2.482  0.00  0.00    -0.010 A 
ATOM      9  C   LIG d   1      19.231   8.903  -2.890  0.00  0.00     0.012 A 
ATOM     10  C   LIG d   1      18.866   7.697  -3.485  0.00  0.00     0.020 A 
ATOM     11  C   LIG d   1      19.838   6.730  -3.652  0.00  0.00     0.116 A 
ATOM     12  N   LIG d   1      21.121   6.898  -3.270  0.00  0.00    -0.273 NA
ATOM     13  C   LIG d   1      21.454   8.080  -2.711  0.00  0.00     0.125 A 
ENDBRANCH   2   8
TORSDOF 1
ENDMDL
