MODEL 1
REMARK VINA RESULT:      -7.7      0.000      0.000
REMARK  15 active torsions:
REMARK  status: ('A' for Active; 'I' for Inactive)
REMARK    1  A    between atoms: O_2  and  C_21 
REMARK    2  A    between atoms: O_2  and  C_25 
REMARK    3  A    between atoms: O_4  and  C_17 
REMARK    4  A    between atoms: O_5  and  C_24 
REMARK    5  A    between atoms: O_5  and  C_28 
REMARK    6  A    between atoms: O_6  and  C_18 
REMARK    7  A    between atoms: O_7  and  C_19 
REMARK    8  A    between atoms: O_8  and  C_20 
REMARK    9  A    between atoms: O_9  and  C_22 
REMARK   10  A    between atoms: O_10  and  C_23 
REMARK   11  A    between atoms: O_12  and  C_35 
REMARK   12  A    between atoms: O_14  and  C_42 
REMARK   13  A    between atoms: O_15  and  C_40 
REMARK   14  A    between atoms: C_16  and  C_25 
REMARK   15  A    between atoms: C_33  and  C_37 
ROOT
ATOM      1  O   UNK d   1      10.627  18.517   1.912  0.00  0.00    -0.348 OA
ATOM      2  C   UNK d   1       9.271  18.319   1.496  0.00  0.00     0.180 C 
ATOM      3  C   UNK d   1       9.083  18.909   0.088  0.00  0.00     0.180 C 
ATOM      4  C   UNK d   1       9.503  20.381   0.080  0.00  0.00     0.183 C 
ATOM      5  C   UNK d   1      10.918  20.558   0.638  0.00  0.00     0.205 C 
ATOM      6  C   UNK d   1      10.998  19.892   2.024  0.00  0.00     0.298 C 
ENDROOT
BRANCH   6   7
ATOM      7  O   UNK d   1      12.351  19.970   2.494  0.00  0.00    -0.318 OA
BRANCH   7   8
ATOM      8  C   UNK d   1      12.546  20.329   3.801  0.00  0.00     0.077 A 
ATOM      9  C   UNK d   1      13.296  19.632   4.744  0.00  0.00     0.074 A 
ATOM     10  C   UNK d   1      13.338  20.063   6.076  0.00  0.00     0.089 A 
ATOM     11  O   UNK d   1      14.023  19.232   6.919  0.00  0.00    -0.340 OA
ATOM     12  C   UNK d   1      12.691  21.237   6.465  0.00  0.00     0.076 A 
ATOM     13  C   UNK d   1      13.745  19.374   8.317  0.00  0.00     0.169 C 
ATOM     14  C   UNK d   1      13.685  20.824   8.767  0.00  0.00     0.121 C 
ATOM     15  C   UNK d   1      12.782  21.642   7.890  0.00  0.00     0.167 C 
ATOM     16  O   UNK d   1      12.207  22.626   8.344  0.00  0.00    -0.292 OA
ATOM     17  C   UNK d   1      11.969  21.957   5.505  0.00  0.00     0.085 A 
ATOM     18  C   UNK d   1      11.891  21.499   4.187  0.00  0.00     0.074 A 
BRANCH  13  19
ATOM     19  C   UNK d   1      12.588  18.488   8.772  0.00  0.00    -0.026 A 
ATOM     20  C   UNK d   1      12.246  17.286   8.135  0.00  0.00     0.049 A 
ATOM     21  C   UNK d   1      11.182  16.507   8.602  0.00  0.00     0.099 A 
ATOM     22  C   UNK d   1      10.422  16.900   9.710  0.00  0.00     0.101 A 
ATOM     23  C   UNK d   1      10.752  18.096  10.347  0.00  0.00     0.040 A 
ATOM     24  C   UNK d   1      11.820  18.878   9.883  0.00  0.00     0.012 A 
BRANCH  21  25
ATOM     25  O   UNK d   1      10.874  15.331   7.967  0.00  0.00    -0.358 OA
ATOM     26  H   UNK d   1      11.035  14.591   8.570  0.00  0.00     0.217 HD
ENDBRANCH  21  25
BRANCH  22  27
ATOM     27  O   UNK d   1       9.408  16.059  10.080  0.00  0.00    -0.353 OA
ATOM     28  C   UNK d   1       9.468  15.492  11.380  0.00  0.00     0.210 C 
ENDBRANCH  22  27
ENDBRANCH  13  19
BRANCH  17  29
ATOM     29  O   UNK d   1      11.315  23.109   5.836  0.00  0.00    -0.360 OA
ATOM     30  H   UNK d   1      11.943  23.842   5.932  0.00  0.00     0.217 HD
ENDBRANCH  17  29
ENDBRANCH   7   8
ENDBRANCH   6   7
BRANCH   5  31
ATOM     31  O   UNK d   1      11.204  21.964   0.706  0.00  0.00    -0.388 OA
ATOM     32  H   UNK d   1      10.651  22.305   1.436  0.00  0.00     0.210 HD
ENDBRANCH   5  31
BRANCH   2  33
ATOM     33  C   UNK d   1       8.964  16.809   1.493  0.00  0.00     0.205 C 
BRANCH  33  34
ATOM     34  O   UNK d   1      10.143  16.010   1.341  0.00  0.00    -0.356 OA
BRANCH  34  35
ATOM     35  C   UNK d   1      10.312  15.025   2.368  0.00  0.00     0.291 C 
ATOM     36  O   UNK d   1       9.174  14.150   2.373  0.00  0.00    -0.351 OA
ATOM     37  C   UNK d   1       8.865  13.519   3.617  0.00  0.00     0.152 C 
ATOM     38  C   UNK d   1      10.111  13.328   4.488  0.00  0.00     0.178 C 
ATOM     39  C   UNK d   1       8.173  12.201   3.285  0.00  0.00     0.042 C 
ATOM     40  C   UNK d   1      10.688  14.706   4.850  0.00  0.00     0.183 C 
ATOM     41  C   UNK d   1      10.505  15.739   3.724  0.00  0.00     0.204 C 
BRANCH  38  42
ATOM     42  O   UNK d   1       9.853  12.620   5.701  0.00  0.00    -0.390 OA
ATOM     43  H   UNK d   1       8.917  12.755   5.932  0.00  0.00     0.210 HD
ENDBRANCH  38  42
BRANCH  40  44
ATOM     44  O   UNK d   1      12.092  14.553   5.153  0.00  0.00    -0.390 OA
ATOM     45  H   UNK d   1      12.300  15.275   5.780  0.00  0.00     0.210 HD
ENDBRANCH  40  44
BRANCH  41  46
ATOM     46  O   UNK d   1      11.613  16.652   3.727  0.00  0.00    -0.388 OA
ATOM     47  H   UNK d   1      12.132  16.430   2.925  0.00  0.00     0.210 HD
ENDBRANCH  41  46
ENDBRANCH  34  35
ENDBRANCH  33  34
ENDBRANCH   2  33
BRANCH   4  48
ATOM     48  O   UNK d   1       9.457  20.902  -1.259  0.00  0.00    -0.390 OA
ATOM     49  H   UNK d   1      10.293  20.635  -1.684  0.00  0.00     0.210 HD
ENDBRANCH   4  48
BRANCH   3  50
ATOM     50  O   UNK d   1       7.722  18.811  -0.337  0.00  0.00    -0.390 OA
ATOM     51  H   UNK d   1       7.262  19.603  -0.003  0.00  0.00     0.210 HD
ENDBRANCH   3  50
TORSDOF 15
ENDMDL
MODEL 2
REMARK VINA RESULT:      -7.6      2.598      7.166
REMARK  15 active torsions:
REMARK  status: ('A' for Active; 'I' for Inactive)
REMARK    1  A    between atoms: O_2  and  C_21 
REMARK    2  A    between atoms: O_2  and  C_25 
REMARK    3  A    between atoms: O_4  and  C_17 
REMARK    4  A    between atoms: O_5  and  C_24 
REMARK    5  A    between atoms: O_5  and  C_28 
REMARK    6  A    between atoms: O_6  and  C_18 
REMARK    7  A    between atoms: O_7  and  C_19 
REMARK    8  A    between atoms: O_8  and  C_20 
REMARK    9  A    between atoms: O_9  and  C_22 
REMARK   10  A    between atoms: O_10  and  C_23 
REMARK   11  A    between atoms: O_12  and  C_35 
REMARK   12  A    between atoms: O_14  and  C_42 
REMARK   13  A    between atoms: O_15  and  C_40 
REMARK   14  A    between atoms: C_16  and  C_25 
REMARK   15  A    between atoms: C_33  and  C_37 
ROOT
ATOM      1  O   UNK d   1       9.711  19.662   0.787  0.00  0.00    -0.348 OA
ATOM      2  C   UNK d   1      10.610  20.744   0.521  0.00  0.00     0.180 C 
ATOM      3  C   UNK d   1       9.820  22.063   0.488  0.00  0.00     0.180 C 
ATOM      4  C   UNK d   1       8.684  21.964  -0.534  0.00  0.00     0.183 C 
ATOM      5  C   UNK d   1       7.813  20.730  -0.279  0.00  0.00     0.205 C 
ATOM      6  C   UNK d   1       8.716  19.483  -0.222  0.00  0.00     0.298 C 
ENDROOT
BRANCH   6   7
ATOM      7  O   UNK d   1       7.909  18.347   0.119  0.00  0.00    -0.318 OA
BRANCH   7   8
ATOM      8  C   UNK d   1       8.248  17.646   1.244  0.00  0.00     0.077 A 
ATOM      9  C   UNK d   1       9.047  16.507   1.298  0.00  0.00     0.074 A 
ATOM     10  C   UNK d   1       9.240  15.832   2.510  0.00  0.00     0.089 A 
ATOM     11  O   UNK d   1       9.956  14.672   2.404  0.00  0.00    -0.340 OA
ATOM     12  C   UNK d   1       8.696  16.329   3.695  0.00  0.00     0.076 A 
ATOM     13  C   UNK d   1       9.823  13.741   3.484  0.00  0.00     0.169 C 
ATOM     14  C   UNK d   1       9.883  14.401   4.850  0.00  0.00     0.121 C 
ATOM     15  C   UNK d   1       8.945  15.569   4.947  0.00  0.00     0.167 C 
ATOM     16  O   UNK d   1       8.470  15.891   6.030  0.00  0.00    -0.292 OA
ATOM     17  C   UNK d   1       7.925  17.497   3.645  0.00  0.00     0.085 A 
ATOM     18  C   UNK d   1       7.696  18.142   2.426  0.00  0.00     0.074 A 
BRANCH  13  19
ATOM     19  C   UNK d   1       8.669  12.764   3.268  0.00  0.00    -0.026 A 
ATOM     20  C   UNK d   1       7.777  12.857   2.189  0.00  0.00     0.049 A 
ATOM     21  C   UNK d   1       6.744  11.926   2.034  0.00  0.00     0.099 A 
ATOM     22  C   UNK d   1       6.560  10.882   2.948  0.00  0.00     0.101 A 
ATOM     23  C   UNK d   1       7.438  10.785   4.026  0.00  0.00     0.040 A 
ATOM     24  C   UNK d   1       8.477  11.714   4.183  0.00  0.00     0.012 A 
BRANCH  21  25
ATOM     25  O   UNK d   1       5.892  12.034   0.965  0.00  0.00    -0.358 OA
ATOM     26  H   UNK d   1       6.245  11.521   0.223  0.00  0.00     0.217 HD
ENDBRANCH  21  25
BRANCH  22  27
ATOM     27  O   UNK d   1       5.518  10.030   2.695  0.00  0.00    -0.353 OA
ATOM     28  C   UNK d   1       5.285   8.986   3.628  0.00  0.00     0.210 C 
ENDBRANCH  22  27
ENDBRANCH  13  19
BRANCH  17  29
ATOM     29  O   UNK d   1       7.368  18.021   4.776  0.00  0.00    -0.360 OA
ATOM     30  H   UNK d   1       6.551  18.500   4.562  0.00  0.00     0.217 HD
ENDBRANCH  17  29
ENDBRANCH   7   8
ENDBRANCH   6   7
BRANCH   5  31
ATOM     31  O   UNK d   1       6.843  20.637  -1.334  0.00  0.00    -0.388 OA
ATOM     32  H   UNK d   1       6.468  21.535  -1.420  0.00  0.00     0.210 HD
ENDBRANCH   5  31
BRANCH   2  33
ATOM     33  C   UNK d   1      11.683  20.787   1.627  0.00  0.00     0.205 C 
BRANCH  33  34
ATOM     34  O   UNK d   1      11.529  19.729   2.581  0.00  0.00    -0.356 OA
BRANCH  34  35
ATOM     35  C   UNK d   1      11.980  20.067   3.899  0.00  0.00     0.291 C 
ATOM     36  O   UNK d   1      12.234  21.478   3.960  0.00  0.00    -0.351 OA
ATOM     37  C   UNK d   1      13.201  21.907   4.922  0.00  0.00     0.152 C 
ATOM     38  C   UNK d   1      13.274  20.957   6.123  0.00  0.00     0.178 C 
ATOM     39  C   UNK d   1      12.827  23.331   5.322  0.00  0.00     0.042 C 
ATOM     40  C   UNK d   1      13.745  19.575   5.643  0.00  0.00     0.183 C 
ATOM     41  C   UNK d   1      13.236  19.232   4.232  0.00  0.00     0.204 C 
BRANCH  38  42
ATOM     42  O   UNK d   1      14.166  21.402   7.146  0.00  0.00    -0.390 OA
ATOM     43  H   UNK d   1      14.975  20.863   7.091  0.00  0.00     0.210 HD
ENDBRANCH  38  42
BRANCH  40  44
ATOM     44  O   UNK d   1      13.289  18.580   6.585  0.00  0.00    -0.390 OA
ATOM     45  H   UNK d   1      13.388  17.723   6.123  0.00  0.00     0.210 HD
ENDBRANCH  40  44
BRANCH  41  46
ATOM     46  O   UNK d   1      13.013  17.818   4.134  0.00  0.00    -0.388 OA
ATOM     47  H   UNK d   1      12.459  17.698   3.334  0.00  0.00     0.210 HD
ENDBRANCH  41  46
ENDBRANCH  34  35
ENDBRANCH  33  34
ENDBRANCH   2  33
BRANCH   4  48
ATOM     48  O   UNK d   1       7.859  23.141  -0.474  0.00  0.00    -0.390 OA
ATOM     49  H   UNK d   1       8.060  23.655  -1.278  0.00  0.00     0.210 HD
ENDBRANCH   4  48
BRANCH   3  50
ATOM     50  O   UNK d   1      10.662  23.164   0.142  0.00  0.00    -0.390 OA
ATOM     51  H   UNK d   1      10.150  23.737  -0.457  0.00  0.00     0.210 HD
ENDBRANCH   3  50
TORSDOF 15
ENDMDL
MODEL 3
REMARK VINA RESULT:      -7.5     27.648     31.347
REMARK  15 active torsions:
REMARK  status: ('A' for Active; 'I' for Inactive)
REMARK    1  A    between atoms: O_2  and  C_21 
REMARK    2  A    between atoms: O_2  and  C_25 
REMARK    3  A    between atoms: O_4  and  C_17 
REMARK    4  A    between atoms: O_5  and  C_24 
REMARK    5  A    between atoms: O_5  and  C_28 
REMARK    6  A    between atoms: O_6  and  C_18 
REMARK    7  A    between atoms: O_7  and  C_19 
REMARK    8  A    between atoms: O_8  and  C_20 
REMARK    9  A    between atoms: O_9  and  C_22 
REMARK   10  A    between atoms: O_10  and  C_23 
REMARK   11  A    between atoms: O_12  and  C_35 
REMARK   12  A    between atoms: O_14  and  C_42 
REMARK   13  A    between atoms: O_15  and  C_40 
REMARK   14  A    between atoms: C_16  and  C_25 
REMARK   15  A    between atoms: C_33  and  C_37 
ROOT
ATOM      1  O   UNK d   1      25.765  -2.897  18.629  0.00  0.00    -0.348 OA
ATOM      2  C   UNK d   1      25.252  -3.923  17.772  0.00  0.00     0.180 C 
ATOM      3  C   UNK d   1      25.079  -3.356  16.353  0.00  0.00     0.180 C 
ATOM      4  C   UNK d   1      24.190  -2.110  16.394  0.00  0.00     0.183 C 
ATOM      5  C   UNK d   1      24.713  -1.087  17.407  0.00  0.00     0.205 C 
ATOM      6  C   UNK d   1      24.888  -1.778  18.772  0.00  0.00     0.298 C 
ENDROOT
BRANCH   6   7
ATOM      7  O   UNK d   1      25.476  -0.843  19.688  0.00  0.00    -0.318 OA
BRANCH   7   8
ATOM      8  C   UNK d   1      25.048  -0.876  20.987  0.00  0.00     0.077 A 
ATOM      9  C   UNK d   1      25.847  -0.771  22.123  0.00  0.00     0.074 A 
ATOM     10  C   UNK d   1      25.289  -0.914  23.399  0.00  0.00     0.089 A 
ATOM     11  O   UNK d   1      26.198  -0.894  24.420  0.00  0.00    -0.340 OA
ATOM     12  C   UNK d   1      23.913  -1.090  23.558  0.00  0.00     0.076 A 
ATOM     13  C   UNK d   1      25.767  -1.453  25.666  0.00  0.00     0.169 C 
ATOM     14  C   UNK d   1      24.365  -1.022  26.058  0.00  0.00     0.121 C 
ATOM     15  C   UNK d   1      23.385  -1.228  24.939  0.00  0.00     0.167 C 
ATOM     16  O   UNK d   1      22.202  -1.439  25.185  0.00  0.00    -0.292 OA
ATOM     17  C   UNK d   1      23.106  -1.157  22.416  0.00  0.00     0.085 A 
ATOM     18  C   UNK d   1      23.673  -1.061  21.142  0.00  0.00     0.074 A 
BRANCH  13  19
ATOM     19  C   UNK d   1      26.054  -2.950  25.762  0.00  0.00    -0.026 A 
ATOM     20  C   UNK d   1      25.181  -3.931  25.268  0.00  0.00     0.049 A 
ATOM     21  C   UNK d   1      25.500  -5.289  25.371  0.00  0.00     0.099 A 
ATOM     22  C   UNK d   1      26.689  -5.714  25.975  0.00  0.00     0.101 A 
ATOM     23  C   UNK d   1      27.560  -4.747  26.474  0.00  0.00     0.040 A 
ATOM     24  C   UNK d   1      27.246  -3.384  26.368  0.00  0.00     0.012 A 
BRANCH  21  25
ATOM     25  O   UNK d   1      24.634  -6.227  24.871  0.00  0.00    -0.358 OA
ATOM     26  H   UNK d   1      23.823  -5.788  24.576  0.00  0.00     0.217 HD
ENDBRANCH  21  25
BRANCH  22  27
ATOM     27  O   UNK d   1      26.898  -7.067  26.019  0.00  0.00    -0.353 OA
ATOM     28  C   UNK d   1      28.003  -7.535  26.777  0.00  0.00     0.210 C 
ENDBRANCH  22  27
ENDBRANCH  13  19
BRANCH  17  29
ATOM     29  O   UNK d   1      21.756  -1.334  22.519  0.00  0.00    -0.360 OA
ATOM     30  H   UNK d   1      21.428  -1.878  21.785  0.00  0.00     0.217 HD
ENDBRANCH  17  29
ENDBRANCH   7   8
ENDBRANCH   6   7
BRANCH   5  31
ATOM     31  O   UNK d   1      23.776  -0.001  17.476  0.00  0.00    -0.388 OA
ATOM     32  H   UNK d   1      24.283   0.794  17.220  0.00  0.00     0.210 HD
ENDBRANCH   5  31
BRANCH   2  33
ATOM     33  C   UNK d   1      26.239  -5.106  17.762  0.00  0.00     0.205 C 
BRANCH  33  34
ATOM     34  O   UNK d   1      25.758  -6.226  18.515  0.00  0.00    -0.356 OA
BRANCH  34  35
ATOM     35  C   UNK d   1      26.214  -6.249  19.874  0.00  0.00     0.291 C 
ATOM     36  O   UNK d   1      27.450  -5.526  19.967  0.00  0.00    -0.351 OA
ATOM     37  C   UNK d   1      28.331  -5.909  21.025  0.00  0.00     0.152 C 
ATOM     38  C   UNK d   1      27.570  -6.487  22.223  0.00  0.00     0.178 C 
ATOM     39  C   UNK d   1      29.150  -4.675  21.390  0.00  0.00     0.042 C 
ATOM     40  C   UNK d   1      26.851  -7.774  21.789  0.00  0.00     0.183 C 
ATOM     41  C   UNK d   1      26.361  -7.717  20.332  0.00  0.00     0.204 C 
BRANCH  38  42
ATOM     42  O   UNK d   1      28.411  -6.798  23.335  0.00  0.00    -0.390 OA
ATOM     43  H   UNK d   1      28.900  -5.991  23.573  0.00  0.00     0.210 HD
ENDBRANCH  38  42
BRANCH  40  44
ATOM     44  O   UNK d   1      25.733  -8.000  22.676  0.00  0.00    -0.390 OA
ATOM     45  H   UNK d   1      24.936  -7.888  22.119  0.00  0.00     0.210 HD
ENDBRANCH  40  44
BRANCH  41  46
ATOM     46  O   UNK d   1      25.145  -8.470  20.206  0.00  0.00    -0.388 OA
ATOM     47  H   UNK d   1      25.418  -9.411  20.252  0.00  0.00     0.210 HD
ENDBRANCH  41  46
ENDBRANCH  34  35
ENDBRANCH  33  34
ENDBRANCH   2  33
BRANCH   4  48
ATOM     48  O   UNK d   1      24.133  -1.498  15.094  0.00  0.00    -0.390 OA
ATOM     49  H   UNK d   1      23.188  -1.353  14.903  0.00  0.00     0.210 HD
ENDBRANCH   4  48
BRANCH   3  50
ATOM     50  O   UNK d   1      24.489  -4.319  15.478  0.00  0.00    -0.390 OA
ATOM     51  H   UNK d   1      24.886  -5.182  15.696  0.00  0.00     0.210 HD
ENDBRANCH   3  50
TORSDOF 15
ENDMDL
MODEL 4
REMARK VINA RESULT:      -7.4     17.482     21.201
REMARK  15 active torsions:
REMARK  status: ('A' for Active; 'I' for Inactive)
REMARK    1  A    between atoms: O_2  and  C_21 
REMARK    2  A    between atoms: O_2  and  C_25 
REMARK    3  A    between atoms: O_4  and  C_17 
REMARK    4  A    between atoms: O_5  and  C_24 
REMARK    5  A    between atoms: O_5  and  C_28 
REMARK    6  A    between atoms: O_6  and  C_18 
REMARK    7  A    between atoms: O_7  and  C_19 
REMARK    8  A    between atoms: O_8  and  C_20 
REMARK    9  A    between atoms: O_9  and  C_22 
REMARK   10  A    between atoms: O_10  and  C_23 
REMARK   11  A    between atoms: O_12  and  C_35 
REMARK   12  A    between atoms: O_14  and  C_42 
REMARK   13  A    between atoms: O_15  and  C_40 
REMARK   14  A    between atoms: C_16  and  C_25 
REMARK   15  A    between atoms: C_33  and  C_37 
ROOT
ATOM      1  O   UNK d   1      19.213  -0.229  -3.393  0.00  0.00    -0.348 OA
ATOM      2  C   UNK d   1      19.213  -1.519  -4.015  0.00  0.00     0.180 C 
ATOM      3  C   UNK d   1      19.427  -2.598  -2.940  0.00  0.00     0.180 C 
ATOM      4  C   UNK d   1      20.712  -2.309  -2.160  0.00  0.00     0.183 C 
ATOM      5  C   UNK d   1      20.718  -0.880  -1.608  0.00  0.00     0.205 C 
ATOM      6  C   UNK d   1      20.450   0.104  -2.762  0.00  0.00     0.298 C 
ENDROOT
BRANCH   6   7
ATOM      7  O   UNK d   1      20.354   1.429  -2.222  0.00  0.00    -0.318 OA
BRANCH   7   8
ATOM      8  C   UNK d   1      20.340   2.473  -3.107  0.00  0.00     0.077 A 
ATOM      9  C   UNK d   1      21.372   3.382  -3.329  0.00  0.00     0.074 A 
ATOM     10  C   UNK d   1      21.190   4.462  -4.201  0.00  0.00     0.089 A 
ATOM     11  O   UNK d   1      22.242   5.335  -4.247  0.00  0.00    -0.340 OA
ATOM     12  C   UNK d   1      20.002   4.606  -4.918  0.00  0.00     0.076 A 
ATOM     13  C   UNK d   1      21.962   6.642  -4.760  0.00  0.00     0.169 C 
ATOM     14  C   UNK d   1      21.103   6.618  -6.013  0.00  0.00     0.121 C 
ATOM     15  C   UNK d   1      19.878   5.770  -5.832  0.00  0.00     0.167 C 
ATOM     16  O   UNK d   1      18.857   6.016  -6.466  0.00  0.00    -0.292 OA
ATOM     17  C   UNK d   1      18.980   3.669  -4.723  0.00  0.00     0.085 A 
ATOM     18  C   UNK d   1      19.147   2.618  -3.817  0.00  0.00     0.074 A 
BRANCH  13  19
ATOM     19  C   UNK d   1      21.516   7.612  -3.667  0.00  0.00    -0.026 A 
ATOM     20  C   UNK d   1      22.350   8.014  -2.613  0.00  0.00     0.049 A 
ATOM     21  C   UNK d   1      21.893   8.915  -1.645  0.00  0.00     0.099 A 
ATOM     22  C   UNK d   1      20.596   9.437  -1.690  0.00  0.00     0.101 A 
ATOM     23  C   UNK d   1      19.758   9.039  -2.731  0.00  0.00     0.040 A 
ATOM     24  C   UNK d   1      20.214   8.139  -3.706  0.00  0.00     0.012 A 
BRANCH  21  25
ATOM     25  O   UNK d   1      22.731   9.299  -0.630  0.00  0.00    -0.358 OA
ATOM     26  H   UNK d   1      23.444   8.649  -0.541  0.00  0.00     0.217 HD
ENDBRANCH  21  25
BRANCH  22  27
ATOM     27  O   UNK d   1      20.258  10.312  -0.692  0.00  0.00    -0.353 OA
ATOM     28  C   UNK d   1      19.119  10.000   0.096  0.00  0.00     0.210 C 
ENDBRANCH  22  27
ENDBRANCH  13  19
BRANCH  17  29
ATOM     29  O   UNK d   1      17.796   3.769  -5.397  0.00  0.00    -0.360 OA
ATOM     30  H   UNK d   1      17.149   4.270  -4.875  0.00  0.00     0.217 HD
ENDBRANCH  17  29
ENDBRANCH   7   8
ENDBRANCH   6   7
BRANCH   5  31
ATOM     31  O   UNK d   1      21.991  -0.641  -0.989  0.00  0.00    -0.388 OA
ATOM     32  H   UNK d   1      22.082   0.331  -0.952  0.00  0.00     0.210 HD
ENDBRANCH   5  31
BRANCH   2  33
ATOM     33  C   UNK d   1      17.864  -1.731  -4.729  0.00  0.00     0.205 C 
BRANCH  33  34
ATOM     34  O   UNK d   1      16.827  -2.143  -3.832  0.00  0.00    -0.356 OA
BRANCH  34  35
ATOM     35  C   UNK d   1      15.931  -3.113  -4.388  0.00  0.00     0.291 C 
ATOM     36  O   UNK d   1      16.667  -4.303  -4.709  0.00  0.00    -0.351 OA
ATOM     37  C   UNK d   1      16.135  -5.114  -5.759  0.00  0.00     0.152 C 
ATOM     38  C   UNK d   1      14.613  -4.977  -5.873  0.00  0.00     0.178 C 
ATOM     39  C   UNK d   1      16.576  -6.547  -5.479  0.00  0.00     0.042 C 
ATOM     40  C   UNK d   1      14.266  -3.527  -6.247  0.00  0.00     0.183 C 
ATOM     41  C   UNK d   1      15.234  -2.506  -5.626  0.00  0.00     0.204 C 
BRANCH  38  42
ATOM     42  O   UNK d   1      14.037  -5.841  -6.854  0.00  0.00    -0.390 OA
ATOM     43  H   UNK d   1      13.630  -6.592  -6.386  0.00  0.00     0.210 HD
ENDBRANCH  38  42
BRANCH  40  44
ATOM     44  O   UNK d   1      12.915  -3.250  -5.814  0.00  0.00    -0.390 OA
ATOM     45  H   UNK d   1      12.745  -2.323  -6.076  0.00  0.00     0.210 HD
ENDBRANCH  40  44
BRANCH  41  46
ATOM     46  O   UNK d   1      14.527  -1.292  -5.333  0.00  0.00    -0.388 OA
ATOM     47  H   UNK d   1      15.083  -0.574  -5.703  0.00  0.00     0.210 HD
ENDBRANCH  41  46
ENDBRANCH  34  35
ENDBRANCH  33  34
ENDBRANCH   2  33
BRANCH   4  48
ATOM     48  O   UNK d   1      20.848  -3.235  -1.068  0.00  0.00    -0.390 OA
ATOM     49  H   UNK d   1      21.096  -4.090  -1.466  0.00  0.00     0.210 HD
ENDBRANCH   4  48
BRANCH   3  50
ATOM     50  O   UNK d   1      19.519  -3.899  -3.523  0.00  0.00    -0.390 OA
ATOM     51  H   UNK d   1      20.214  -3.857  -4.205  0.00  0.00     0.210 HD
ENDBRANCH   3  50
TORSDOF 15
ENDMDL
MODEL 5
REMARK VINA RESULT:      -7.4      3.385      8.913
REMARK  15 active torsions:
REMARK  status: ('A' for Active; 'I' for Inactive)
REMARK    1  A    between atoms: O_2  and  C_21 
REMARK    2  A    between atoms: O_2  and  C_25 
REMARK    3  A    between atoms: O_4  and  C_17 
REMARK    4  A    between atoms: O_5  and  C_24 
REMARK    5  A    between atoms: O_5  and  C_28 
REMARK    6  A    between atoms: O_6  and  C_18 
REMARK    7  A    between atoms: O_7  and  C_19 
REMARK    8  A    between atoms: O_8  and  C_20 
REMARK    9  A    between atoms: O_9  and  C_22 
REMARK   10  A    between atoms: O_10  and  C_23 
REMARK   11  A    between atoms: O_12  and  C_35 
REMARK   12  A    between atoms: O_14  and  C_42 
REMARK   13  A    between atoms: O_15  and  C_40 
REMARK   14  A    between atoms: C_16  and  C_25 
REMARK   15  A    between atoms: C_33  and  C_37 
ROOT
ATOM      1  O   UNK d   1       9.668  17.624   4.241  0.00  0.00    -0.348 OA
ATOM      2  C   UNK d   1      10.768  16.947   4.857  0.00  0.00     0.180 C 
ATOM      3  C   UNK d   1      11.302  15.871   3.897  0.00  0.00     0.180 C 
ATOM      4  C   UNK d   1      10.169  14.926   3.492  0.00  0.00     0.183 C 
ATOM      5  C   UNK d   1       8.968  15.701   2.942  0.00  0.00     0.205 C 
ATOM      6  C   UNK d   1       8.553  16.774   3.965  0.00  0.00     0.298 C 
ENDROOT
BRANCH   6   7
ATOM      7  O   UNK d   1       7.496  17.563   3.401  0.00  0.00    -0.318 OA
BRANCH   7   8
ATOM      8  C   UNK d   1       7.851  18.615   2.601  0.00  0.00     0.077 A 
ATOM      9  C   UNK d   1       7.898  19.956   2.973  0.00  0.00     0.074 A 
ATOM     10  C   UNK d   1       8.191  20.945   2.026  0.00  0.00     0.089 A 
ATOM     11  O   UNK d   1       8.101  22.226   2.498  0.00  0.00    -0.340 OA
ATOM     12  C   UNK d   1       8.512  20.600   0.712  0.00  0.00     0.076 A 
ATOM     13  C   UNK d   1       7.961  23.258   1.516  0.00  0.00     0.169 C 
ATOM     14  C   UNK d   1       8.896  23.084   0.332  0.00  0.00     0.121 C 
ATOM     15  C   UNK d   1       8.819  21.698  -0.240  0.00  0.00     0.167 C 
ATOM     16  O   UNK d   1       9.061  21.505  -1.427  0.00  0.00    -0.292 OA
ATOM     17  C   UNK d   1       8.502  19.248   0.350  0.00  0.00     0.085 A 
ATOM     18  C   UNK d   1       8.164  18.266   1.286  0.00  0.00     0.074 A 
BRANCH  13  19
ATOM     19  C   UNK d   1       6.499  23.539   1.172  0.00  0.00    -0.026 A 
ATOM     20  C   UNK d   1       6.070  23.905  -0.112  0.00  0.00     0.049 A 
ATOM     21  C   UNK d   1       4.716  24.139  -0.374  0.00  0.00     0.099 A 
ATOM     22  C   UNK d   1       3.749  24.025   0.632  0.00  0.00     0.101 A 
ATOM     23  C   UNK d   1       4.167  23.666   1.913  0.00  0.00     0.040 A 
ATOM     24  C   UNK d   1       5.524  23.427   2.178  0.00  0.00     0.012 A 
BRANCH  21  25
ATOM     25  O   UNK d   1       4.322  24.487  -1.640  0.00  0.00    -0.358 OA
ATOM     26  H   UNK d   1       4.173  25.443  -1.677  0.00  0.00     0.217 HD
ENDBRANCH  21  25
BRANCH  22  27
ATOM     27  O   UNK d   1       2.455  24.274   0.262  0.00  0.00    -0.353 OA
ATOM     28  C   UNK d   1       1.521  23.212   0.385  0.00  0.00     0.210 C 
ENDBRANCH  22  27
ENDBRANCH  13  19
BRANCH  17  29
ATOM     29  O   UNK d   1       8.803  18.859  -0.924  0.00  0.00    -0.360 OA
ATOM     30  H   UNK d   1       9.761  18.906  -1.076  0.00  0.00     0.217 HD
ENDBRANCH  17  29
ENDBRANCH   7   8
ENDBRANCH   6   7
BRANCH   5  31
ATOM     31  O   UNK d   1       7.906  14.768   2.689  0.00  0.00    -0.388 OA
ATOM     32  H   UNK d   1       8.033  14.049   3.337  0.00  0.00     0.210 HD
ENDBRANCH   5  31
BRANCH   2  33
ATOM     33  C   UNK d   1      11.870  17.974   5.182  0.00  0.00     0.205 C 
BRANCH  33  34
ATOM     34  O   UNK d   1      12.655  18.317   4.033  0.00  0.00    -0.356 OA
BRANCH  34  35
ATOM     35  C   UNK d   1      12.786  19.729   3.821  0.00  0.00     0.291 C 
ATOM     36  O   UNK d   1      12.805  20.395   5.093  0.00  0.00    -0.351 OA
ATOM     37  C   UNK d   1      12.347  21.749   5.106  0.00  0.00     0.152 C 
ATOM     38  C   UNK d   1      12.571  22.442   3.758  0.00  0.00     0.178 C 
ATOM     39  C   UNK d   1      13.068  22.449   6.254  0.00  0.00     0.042 C 
ATOM     40  C   UNK d   1      11.738  21.730   2.681  0.00  0.00     0.183 C 
ATOM     41  C   UNK d   1      11.625  20.215   2.925  0.00  0.00     0.204 C 
BRANCH  38  42
ATOM     42  O   UNK d   1      12.206  23.824   3.763  0.00  0.00    -0.390 OA
ATOM     43  H   UNK d   1      11.281  23.888   3.465  0.00  0.00     0.210 HD
ENDBRANCH  38  42
BRANCH  40  44
ATOM     44  O   UNK d   1      12.342  21.976   1.393  0.00  0.00    -0.390 OA
ATOM     45  H   UNK d   1      12.507  22.940   1.365  0.00  0.00     0.210 HD
ENDBRANCH  40  44
BRANCH  41  46
ATOM     46  O   UNK d   1      11.563  19.530   1.665  0.00  0.00    -0.388 OA
ATOM     47  H   UNK d   1      11.682  18.581   1.881  0.00  0.00     0.210 HD
ENDBRANCH  41  46
ENDBRANCH  34  35
ENDBRANCH  33  34
ENDBRANCH   2  33
BRANCH   4  48
ATOM     48  O   UNK d   1      10.629  14.000   2.492  0.00  0.00    -0.390 OA
ATOM     49  H   UNK d   1      11.521  13.722   2.768  0.00  0.00     0.210 HD
ENDBRANCH   4  48
BRANCH   3  50
ATOM     50  O   UNK d   1      12.349  15.110   4.502  0.00  0.00    -0.390 OA
ATOM     51  H   UNK d   1      12.009  14.205   4.625  0.00  0.00     0.210 HD
ENDBRANCH   3  50
TORSDOF 15
ENDMDL
MODEL 6
REMARK VINA RESULT:      -7.4      2.740      8.963
REMARK  15 active torsions:
REMARK  status: ('A' for Active; 'I' for Inactive)
REMARK    1  A    between atoms: O_2  and  C_21 
REMARK    2  A    between atoms: O_2  and  C_25 
REMARK    3  A    between atoms: O_4  and  C_17 
REMARK    4  A    between atoms: O_5  and  C_24 
REMARK    5  A    between atoms: O_5  and  C_28 
REMARK    6  A    between atoms: O_6  and  C_18 
REMARK    7  A    between atoms: O_7  and  C_19 
REMARK    8  A    between atoms: O_8  and  C_20 
REMARK    9  A    between atoms: O_9  and  C_22 
REMARK   10  A    between atoms: O_10  and  C_23 
REMARK   11  A    between atoms: O_12  and  C_35 
REMARK   12  A    between atoms: O_14  and  C_42 
REMARK   13  A    between atoms: O_15  and  C_40 
REMARK   14  A    between atoms: C_16  and  C_25 
REMARK   15  A    between atoms: C_33  and  C_37 
ROOT
ATOM      1  O   UNK d   1      11.553  17.647   4.060  0.00  0.00    -0.348 OA
ATOM      2  C   UNK d   1      11.629  18.920   4.711  0.00  0.00     0.180 C 
ATOM      3  C   UNK d   1      12.406  18.768   6.030  0.00  0.00     0.180 C 
ATOM      4  C   UNK d   1      11.752  17.690   6.898  0.00  0.00     0.183 C 
ATOM      5  C   UNK d   1      11.588  16.378   6.125  0.00  0.00     0.205 C 
ATOM      6  C   UNK d   1      10.839  16.661   4.809  0.00  0.00     0.298 C 
ENDROOT
BRANCH   6   7
ATOM      7  O   UNK d   1      10.781  15.450   4.044  0.00  0.00    -0.318 OA
BRANCH   7   8
ATOM      8  C   UNK d   1       9.577  15.110   3.489  0.00  0.00     0.077 A 
ATOM      9  C   UNK d   1       8.359  15.011   4.157  0.00  0.00     0.074 A 
ATOM     10  C   UNK d   1       7.216  14.562   3.483  0.00  0.00     0.089 A 
ATOM     11  O   UNK d   1       6.113  14.410   4.278  0.00  0.00    -0.340 OA
ATOM     12  C   UNK d   1       7.260  14.278   2.117  0.00  0.00     0.076 A 
ATOM     13  C   UNK d   1       5.072  13.570   3.768  0.00  0.00     0.169 C 
ATOM     14  C   UNK d   1       4.765  13.825   2.302  0.00  0.00     0.121 C 
ATOM     15  C   UNK d   1       6.010  13.814   1.463  0.00  0.00     0.167 C 
ATOM     16  O   UNK d   1       5.955  13.488   0.282  0.00  0.00    -0.292 OA
ATOM     17  C   UNK d   1       8.477  14.416   1.440  0.00  0.00     0.085 A 
ATOM     18  C   UNK d   1       9.627  14.819   2.125  0.00  0.00     0.074 A 
BRANCH  13  19
ATOM     19  C   UNK d   1       5.260  12.106   4.163  0.00  0.00    -0.026 A 
ATOM     20  C   UNK d   1       6.517  11.533   4.402  0.00  0.00     0.049 A 
ATOM     21  C   UNK d   1       6.631  10.188   4.773  0.00  0.00     0.099 A 
ATOM     22  C   UNK d   1       5.502   9.373   4.908  0.00  0.00     0.101 A 
ATOM     23  C   UNK d   1       4.248   9.933   4.667  0.00  0.00     0.040 A 
ATOM     24  C   UNK d   1       4.131  11.281   4.299  0.00  0.00     0.012 A 
BRANCH  21  25
ATOM     25  O   UNK d   1       7.871   9.655   5.011  0.00  0.00    -0.358 OA
ATOM     26  H   UNK d   1       8.543  10.341   4.884  0.00  0.00     0.217 HD
ENDBRANCH  21  25
BRANCH  22  27
ATOM     27  O   UNK d   1       5.731   8.074   5.278  0.00  0.00    -0.353 OA
ATOM     28  C   UNK d   1       5.292   7.054   4.394  0.00  0.00     0.210 C 
ENDBRANCH  22  27
ENDBRANCH  13  19
BRANCH  17  29
ATOM     29  O   UNK d   1       8.574  14.145   0.105  0.00  0.00    -0.360 OA
ATOM     30  H   UNK d   1       8.282  13.238  -0.081  0.00  0.00     0.217 HD
ENDBRANCH  17  29
ENDBRANCH   7   8
ENDBRANCH   6   7
BRANCH   5  31
ATOM     31  O   UNK d   1      10.871  15.451   6.956  0.00  0.00    -0.388 OA
ATOM     32  H   UNK d   1      11.476  15.243   7.694  0.00  0.00     0.210 HD
ENDBRANCH   5  31
BRANCH   2  33
ATOM     33  C   UNK d   1      12.343  19.917   3.778  0.00  0.00     0.205 C 
BRANCH  33  34
ATOM     34  O   UNK d   1      12.252  19.539   2.399  0.00  0.00    -0.356 OA
BRANCH  34  35
ATOM     35  C   UNK d   1      11.516  20.465   1.591  0.00  0.00     0.291 C 
ATOM     36  O   UNK d   1      11.231  21.640   2.364  0.00  0.00    -0.351 OA
ATOM     37  C   UNK d   1      10.068  22.381   1.987  0.00  0.00     0.152 C 
ATOM     38  C   UNK d   1       9.746  22.222   0.497  0.00  0.00     0.178 C 
ATOM     39  C   UNK d   1      10.321  23.833   2.382  0.00  0.00     0.042 C 
ATOM     40  C   UNK d   1       9.416  20.749   0.209  0.00  0.00     0.183 C 
ATOM     41  C   UNK d   1      10.230  19.777   1.079  0.00  0.00     0.204 C 
BRANCH  38  42
ATOM     42  O   UNK d   1       8.642  23.020   0.067  0.00  0.00    -0.390 OA
ATOM     43  H   UNK d   1       8.882  23.425  -0.786  0.00  0.00     0.210 HD
ENDBRANCH  38  42
BRANCH  40  44
ATOM     44  O   UNK d   1       9.668  20.486  -1.189  0.00  0.00    -0.390 OA
ATOM     45  H   UNK d   1      10.571  20.822  -1.357  0.00  0.00     0.210 HD
ENDBRANCH  40  44
BRANCH  41  46
ATOM     46  O   UNK d   1      10.492  18.576   0.339  0.00  0.00    -0.388 OA
ATOM     47  H   UNK d   1      10.419  18.833  -0.605  0.00  0.00     0.210 HD
ENDBRANCH  41  46
ENDBRANCH  34  35
ENDBRANCH  33  34
ENDBRANCH   2  33
BRANCH   4  48
ATOM     48  O   UNK d   1      12.547  17.448   8.071  0.00  0.00    -0.390 OA
ATOM     49  H   UNK d   1      11.918  17.291   8.799  0.00  0.00     0.210 HD
ENDBRANCH   4  48
BRANCH   3  50
ATOM     50  O   UNK d   1      12.436  19.997   6.758  0.00  0.00    -0.390 OA
ATOM     51  H   UNK d   1      13.080  19.885   7.480  0.00  0.00     0.210 HD
ENDBRANCH   3  50
TORSDOF 15
ENDMDL
MODEL 7
REMARK VINA RESULT:      -7.3      3.974      8.157
REMARK  15 active torsions:
REMARK  status: ('A' for Active; 'I' for Inactive)
REMARK    1  A    between atoms: O_2  and  C_21 
REMARK    2  A    between atoms: O_2  and  C_25 
REMARK    3  A    between atoms: O_4  and  C_17 
REMARK    4  A    between atoms: O_5  and  C_24 
REMARK    5  A    between atoms: O_5  and  C_28 
REMARK    6  A    between atoms: O_6  and  C_18 
REMARK    7  A    between atoms: O_7  and  C_19 
REMARK    8  A    between atoms: O_8  and  C_20 
REMARK    9  A    between atoms: O_9  and  C_22 
REMARK   10  A    between atoms: O_10  and  C_23 
REMARK   11  A    between atoms: O_12  and  C_35 
REMARK   12  A    between atoms: O_14  and  C_42 
REMARK   13  A    between atoms: O_15  and  C_40 
REMARK   14  A    between atoms: C_16  and  C_25 
REMARK   15  A    between atoms: C_33  and  C_37 
ROOT
ATOM      1  O   UNK d   1       8.846  16.795   2.909  0.00  0.00    -0.348 OA
ATOM      2  C   UNK d   1       9.048  15.497   2.341  0.00  0.00     0.180 C 
ATOM      3  C   UNK d   1       9.894  14.649   3.305  0.00  0.00     0.180 C 
ATOM      4  C   UNK d   1      11.204  15.373   3.624  0.00  0.00     0.183 C 
ATOM      5  C   UNK d   1      10.944  16.798   4.123  0.00  0.00     0.205 C 
ATOM      6  C   UNK d   1      10.054  17.532   3.102  0.00  0.00     0.298 C 
ENDROOT
BRANCH   6   7
ATOM      7  O   UNK d   1       9.729  18.828   3.624  0.00  0.00    -0.318 OA
BRANCH   7   8
ATOM      8  C   UNK d   1       9.532  19.840   2.725  0.00  0.00     0.077 A 
ATOM      9  C   UNK d   1       9.148  21.146   3.022  0.00  0.00     0.074 A 
ATOM     10  C   UNK d   1       8.892  22.061   1.994  0.00  0.00     0.089 A 
ATOM     11  O   UNK d   1       8.422  23.273   2.419  0.00  0.00    -0.340 OA
ATOM     12  C   UNK d   1       9.088  21.705   0.659  0.00  0.00     0.076 A 
ATOM     13  C   UNK d   1       7.749  24.073   1.441  0.00  0.00     0.169 C 
ATOM     14  C   UNK d   1       8.466  24.106   0.103  0.00  0.00     0.121 C 
ATOM     15  C   UNK d   1       8.805  22.726  -0.382  0.00  0.00     0.167 C 
ATOM     16  O   UNK d   1       8.894  22.498  -1.583  0.00  0.00    -0.292 OA
ATOM     17  C   UNK d   1       9.512  20.404   0.364  0.00  0.00     0.085 A 
ATOM     18  C   UNK d   1       9.722  19.478   1.391  0.00  0.00     0.074 A 
BRANCH  13  19
ATOM     19  C   UNK d   1       6.250  23.782   1.385  0.00  0.00    -0.026 A 
ATOM     20  C   UNK d   1       5.518  23.762   0.189  0.00  0.00     0.049 A 
ATOM     21  C   UNK d   1       4.147  23.478   0.194  0.00  0.00     0.099 A 
ATOM     22  C   UNK d   1       3.463  23.215   1.386  0.00  0.00     0.101 A 
ATOM     23  C   UNK d   1       4.182  23.238   2.581  0.00  0.00     0.040 A 
ATOM     24  C   UNK d   1       5.556  23.518   2.578  0.00  0.00     0.012 A 
BRANCH  21  25
ATOM     25  O   UNK d   1       3.457  23.455  -0.990  0.00  0.00    -0.358 OA
ATOM     26  H   UNK d   1       3.240  22.538  -1.215  0.00  0.00     0.217 HD
ENDBRANCH  21  25
BRANCH  22  27
ATOM     27  O   UNK d   1       2.125  22.947   1.272  0.00  0.00    -0.353 OA
ATOM     28  C   UNK d   1       1.219  23.999   1.569  0.00  0.00     0.210 C 
ENDBRANCH  22  27
ENDBRANCH  13  19
BRANCH  17  29
ATOM     29  O   UNK d   1       9.713  20.004  -0.926  0.00  0.00    -0.360 OA
ATOM     30  H   UNK d   1      10.564  19.545  -1.012  0.00  0.00     0.217 HD
ENDBRANCH  17  29
ENDBRANCH   7   8
ENDBRANCH   6   7
BRANCH   5  31
ATOM     31  O   UNK d   1      12.210  17.454   4.295  0.00  0.00    -0.388 OA
ATOM     32  H   UNK d   1      12.425  17.358   5.243  0.00  0.00     0.210 HD
ENDBRANCH   5  31
BRANCH   2  33
ATOM     33  C   UNK d   1       7.677  14.835   2.103  0.00  0.00     0.205 C 
BRANCH  33  34
ATOM     34  O   UNK d   1       7.695  13.917   1.003  0.00  0.00    -0.356 OA
BRANCH  34  35
ATOM     35  C   UNK d   1       6.631  12.958   1.031  0.00  0.00     0.291 C 
ATOM     36  O   UNK d   1       5.380  13.649   1.166  0.00  0.00    -0.351 OA
ATOM     37  C   UNK d   1       4.316  12.920   1.785  0.00  0.00     0.152 C 
ATOM     38  C   UNK d   1       4.456  11.410   1.567  0.00  0.00     0.178 C 
ATOM     39  C   UNK d   1       3.012  13.476   1.222  0.00  0.00     0.042 C 
ATOM     40  C   UNK d   1       5.746  10.922   2.244  0.00  0.00     0.183 C 
ATOM     41  C   UNK d   1       6.876  11.964   2.187  0.00  0.00     0.204 C 
BRANCH  38  42
ATOM     42  O   UNK d   1       3.363  10.657   2.096  0.00  0.00    -0.390 OA
ATOM     43  H   UNK d   1       3.223   9.887   1.516  0.00  0.00     0.210 HD
ENDBRANCH  38  42
BRANCH  40  44
ATOM     44  O   UNK d   1       6.172   9.701   1.599  0.00  0.00    -0.390 OA
ATOM     45  H   UNK d   1       6.994   9.438   2.061  0.00  0.00     0.210 HD
ENDBRANCH  40  44
BRANCH  41  46
ATOM     46  O   UNK d   1       8.142  11.294   2.093  0.00  0.00    -0.388 OA
ATOM     47  H   UNK d   1       8.027  10.453   2.585  0.00  0.00     0.210 HD
ENDBRANCH  41  46
ENDBRANCH  34  35
ENDBRANCH  33  34
ENDBRANCH   2  33
BRANCH   4  48
ATOM     48  O   UNK d   1      11.939  14.651   4.627  0.00  0.00    -0.390 OA
ATOM     49  H   UNK d   1      11.846  13.706   4.405  0.00  0.00     0.210 HD
ENDBRANCH   4  48
BRANCH   3  50
ATOM     50  O   UNK d   1      10.195  13.370   2.743  0.00  0.00    -0.390 OA
ATOM     51  H   UNK d   1       9.578  13.232   2.001  0.00  0.00     0.210 HD
ENDBRANCH   3  50
TORSDOF 15
ENDMDL
MODEL 8
REMARK VINA RESULT:      -7.2      4.624     10.681
REMARK  15 active torsions:
REMARK  status: ('A' for Active; 'I' for Inactive)
REMARK    1  A    between atoms: O_2  and  C_21 
REMARK    2  A    between atoms: O_2  and  C_25 
REMARK    3  A    between atoms: O_4  and  C_17 
REMARK    4  A    between atoms: O_5  and  C_24 
REMARK    5  A    between atoms: O_5  and  C_28 
REMARK    6  A    between atoms: O_6  and  C_18 
REMARK    7  A    between atoms: O_7  and  C_19 
REMARK    8  A    between atoms: O_8  and  C_20 
REMARK    9  A    between atoms: O_9  and  C_22 
REMARK   10  A    between atoms: O_10  and  C_23 
REMARK   11  A    between atoms: O_12  and  C_35 
REMARK   12  A    between atoms: O_14  and  C_42 
REMARK   13  A    between atoms: O_15  and  C_40 
REMARK   14  A    between atoms: C_16  and  C_25 
REMARK   15  A    between atoms: C_33  and  C_37 
ROOT
ATOM      1  O   UNK d   1       8.484  16.249   2.027  0.00  0.00    -0.348 OA
ATOM      2  C   UNK d   1       8.956  17.204   2.983  0.00  0.00     0.180 C 
ATOM      3  C   UNK d   1      10.470  17.018   3.179  0.00  0.00     0.180 C 
ATOM      4  C   UNK d   1      10.768  15.571   3.581  0.00  0.00     0.183 C 
ATOM      5  C   UNK d   1      10.149  14.580   2.591  0.00  0.00     0.205 C 
ATOM      6  C   UNK d   1       8.648  14.892   2.443  0.00  0.00     0.298 C 
ENDROOT
BRANCH   6   7
ATOM      7  O   UNK d   1       8.096  14.029   1.439  0.00  0.00    -0.318 OA
BRANCH   7   8
ATOM      8  C   UNK d   1       6.735  13.899   1.395  0.00  0.00     0.077 A 
ATOM      9  C   UNK d   1       5.911  13.487   2.440  0.00  0.00     0.074 A 
ATOM     10  C   UNK d   1       4.538  13.309   2.231  0.00  0.00     0.089 A 
ATOM     11  O   UNK d   1       3.863  12.802   3.307  0.00  0.00    -0.340 OA
ATOM     12  C   UNK d   1       3.960  13.610   0.997  0.00  0.00     0.076 A 
ATOM     13  C   UNK d   1       2.590  12.204   3.037  0.00  0.00     0.169 C 
ATOM     14  C   UNK d   1       1.738  13.024   2.084  0.00  0.00     0.121 C 
ATOM     15  C   UNK d   1       2.497  13.406   0.846  0.00  0.00     0.167 C 
ATOM     16  O   UNK d   1       1.902  13.590  -0.211  0.00  0.00    -0.292 OA
ATOM     17  C   UNK d   1       4.784  14.061  -0.040  0.00  0.00     0.085 A 
ATOM     18  C   UNK d   1       6.162  14.194   0.157  0.00  0.00     0.074 A 
BRANCH  13  19
ATOM     19  C   UNK d   1       2.705  10.716   2.713  0.00  0.00    -0.026 A 
ATOM     20  C   UNK d   1       2.119  10.130   1.580  0.00  0.00     0.049 A 
ATOM     21  C   UNK d   1       2.266   8.762   1.326  0.00  0.00     0.099 A 
ATOM     22  C   UNK d   1       2.990   7.934   2.191  0.00  0.00     0.101 A 
ATOM     23  C   UNK d   1       3.571   8.506   3.322  0.00  0.00     0.040 A 
ATOM     24  C   UNK d   1       3.429   9.878   3.578  0.00  0.00     0.012 A 
BRANCH  21  25
ATOM     25  O   UNK d   1       1.693   8.217   0.206  0.00  0.00    -0.358 OA
ATOM     26  H   UNK d   1       0.948   7.657   0.470  0.00  0.00     0.217 HD
ENDBRANCH  21  25
BRANCH  22  27
ATOM     27  O   UNK d   1       3.070   6.613   1.842  0.00  0.00    -0.353 OA
ATOM     28  C   UNK d   1       2.418   5.672   2.681  0.00  0.00     0.210 C 
ENDBRANCH  22  27
ENDBRANCH  13  19
BRANCH  17  29
ATOM     29  O   UNK d   1       4.269  14.364  -1.268  0.00  0.00    -0.360 OA
ATOM     30  H   UNK d   1       4.277  13.582  -1.843  0.00  0.00     0.217 HD
ENDBRANCH  17  29
ENDBRANCH   7   8
ENDBRANCH   6   7
BRANCH   5  31
ATOM     31  O   UNK d   1      10.370  13.250   3.086  0.00  0.00    -0.388 OA
ATOM     32  H   UNK d   1      10.683  13.365   4.004  0.00  0.00     0.210 HD
ENDBRANCH   5  31
BRANCH   2  33
ATOM     33  C   UNK d   1       8.651  18.623   2.465  0.00  0.00     0.205 C 
BRANCH  33  34
ATOM     34  O   UNK d   1       9.751  19.192   1.744  0.00  0.00    -0.356 OA
BRANCH  34  35
ATOM     35  C   UNK d   1      10.032  20.552   2.094  0.00  0.00     0.291 C 
ATOM     36  O   UNK d   1       9.059  21.407   1.475  0.00  0.00    -0.351 OA
ATOM     37  C   UNK d   1       9.472  22.749   1.206  0.00  0.00     0.152 C 
ATOM     38  C   UNK d   1      10.547  23.225   2.191  0.00  0.00     0.178 C 
ATOM     39  C   UNK d   1       8.218  23.615   1.243  0.00  0.00     0.042 C 
ATOM     40  C   UNK d   1      11.803  22.357   2.021  0.00  0.00     0.183 C 
ATOM     41  C   UNK d   1      11.473  20.898   1.659  0.00  0.00     0.204 C 
BRANCH  38  42
ATOM     42  O   UNK d   1      10.919  24.591   2.007  0.00  0.00    -0.390 OA
ATOM     43  H   UNK d   1      11.885  24.622   1.882  0.00  0.00     0.210 HD
ENDBRANCH  38  42
BRANCH  40  44
ATOM     44  O   UNK d   1      12.562  22.398   3.250  0.00  0.00    -0.390 OA
ATOM     45  H   UNK d   1      12.057  22.988   3.845  0.00  0.00     0.210 HD
ENDBRANCH  40  44
BRANCH  41  46
ATOM     46  O   UNK d   1      12.458  20.027   2.234  0.00  0.00    -0.388 OA
ATOM     47  H   UNK d   1      13.107  20.621   2.668  0.00  0.00     0.210 HD
ENDBRANCH  41  46
ENDBRANCH  34  35
ENDBRANCH  33  34
ENDBRANCH   2  33
BRANCH   4  48
ATOM     48  O   UNK d   1      12.189  15.355   3.635  0.00  0.00    -0.390 OA
ATOM     49  H   UNK d   1      12.333  14.424   3.380  0.00  0.00     0.210 HD
ENDBRANCH   4  48
BRANCH   3  50
ATOM     50  O   UNK d   1      10.974  17.894   4.189  0.00  0.00    -0.390 OA
ATOM     51  H   UNK d   1      10.595  17.599   5.037  0.00  0.00     0.210 HD
ENDBRANCH   3  50
TORSDOF 15
ENDMDL
MODEL 9
REMARK VINA RESULT:      -7.2     28.292     32.375
REMARK  15 active torsions:
REMARK  status: ('A' for Active; 'I' for Inactive)
REMARK    1  A    between atoms: O_2  and  C_21 
REMARK    2  A    between atoms: O_2  and  C_25 
REMARK    3  A    between atoms: O_4  and  C_17 
REMARK    4  A    between atoms: O_5  and  C_24 
REMARK    5  A    between atoms: O_5  and  C_28 
REMARK    6  A    between atoms: O_6  and  C_18 
REMARK    7  A    between atoms: O_7  and  C_19 
REMARK    8  A    between atoms: O_8  and  C_20 
REMARK    9  A    between atoms: O_9  and  C_22 
REMARK   10  A    between atoms: O_10  and  C_23 
REMARK   11  A    between atoms: O_12  and  C_35 
REMARK   12  A    between atoms: O_14  and  C_42 
REMARK   13  A    between atoms: O_15  and  C_40 
REMARK   14  A    between atoms: C_16  and  C_25 
REMARK   15  A    between atoms: C_33  and  C_37 
ROOT
ATOM      1  O   UNK d   1      26.880  -6.649  20.712  0.00  0.00    -0.348 OA
ATOM      2  C   UNK d   1      27.559  -6.147  19.556  0.00  0.00     0.180 C 
ATOM      3  C   UNK d   1      27.271  -7.070  18.360  0.00  0.00     0.180 C 
ATOM      4  C   UNK d   1      27.661  -8.509  18.707  0.00  0.00     0.183 C 
ATOM      5  C   UNK d   1      27.000  -8.966  20.010  0.00  0.00     0.205 C 
ATOM      6  C   UNK d   1      27.320  -7.946  21.119  0.00  0.00     0.298 C 
ENDROOT
BRANCH   6   7
ATOM      7  O   UNK d   1      26.614  -8.324  22.309  0.00  0.00    -0.318 OA
BRANCH   7   8
ATOM      8  C   UNK d   1      26.646  -7.455  23.366  0.00  0.00     0.077 A 
ATOM      9  C   UNK d   1      25.544  -6.905  24.016  0.00  0.00     0.074 A 
ATOM     10  C   UNK d   1      25.721  -5.955  25.029  0.00  0.00     0.089 A 
ATOM     11  O   UNK d   1      24.559  -5.417  25.510  0.00  0.00    -0.340 OA
ATOM     12  C   UNK d   1      27.001  -5.597  25.455  0.00  0.00     0.076 A 
ATOM     13  C   UNK d   1      24.674  -4.172  26.207  0.00  0.00     0.169 C 
ATOM     14  C   UNK d   1      25.837  -4.142  27.183  0.00  0.00     0.121 C 
ATOM     15  C   UNK d   1      27.117  -4.588  26.538  0.00  0.00     0.167 C 
ATOM     16  O   UNK d   1      28.194  -4.168  26.947  0.00  0.00    -0.292 OA
ATOM     17  C   UNK d   1      28.107  -6.181  24.826  0.00  0.00     0.085 A 
ATOM     18  C   UNK d   1      27.928  -7.095  23.783  0.00  0.00     0.074 A 
BRANCH  13  19
ATOM     19  C   UNK d   1      24.559  -2.970  25.272  0.00  0.00    -0.026 A 
ATOM     20  C   UNK d   1      23.766  -2.971  24.115  0.00  0.00     0.049 A 
ATOM     21  C   UNK d   1      23.688  -1.837  23.300  0.00  0.00     0.099 A 
ATOM     22  C   UNK d   1      24.402  -0.672  23.603  0.00  0.00     0.101 A 
ATOM     23  C   UNK d   1      25.198  -0.663  24.748  0.00  0.00     0.040 A 
ATOM     24  C   UNK d   1      25.274  -1.797  25.570  0.00  0.00     0.012 A 
BRANCH  21  25
ATOM     25  O   UNK d   1      22.898  -1.861  22.180  0.00  0.00    -0.358 OA
ATOM     26  H   UNK d   1      22.417  -2.701  22.147  0.00  0.00     0.217 HD
ENDBRANCH  21  25
BRANCH  22  27
ATOM     27  O   UNK d   1      24.249   0.377  22.737  0.00  0.00    -0.353 OA
ATOM     28  C   UNK d   1      24.832   1.619  23.102  0.00  0.00     0.210 C 
ENDBRANCH  22  27
ENDBRANCH  13  19
BRANCH  17  29
ATOM     29  O   UNK d   1      29.380  -5.861  25.202  0.00  0.00    -0.360 OA
ATOM     30  H   UNK d   1      29.553  -4.918  25.050  0.00  0.00     0.217 HD
ENDBRANCH  17  29
ENDBRANCH   7   8
ENDBRANCH   6   7
BRANCH   5  31
ATOM     31  O   UNK d   1      27.495 -10.275  20.332  0.00  0.00    -0.388 OA
ATOM     32  H   UNK d   1      27.450 -10.336  21.306  0.00  0.00     0.210 HD
ENDBRANCH   5  31
BRANCH   2  33
ATOM     33  C   UNK d   1      27.063  -4.717  19.266  0.00  0.00     0.205 C 
BRANCH  33  34
ATOM     34  O   UNK d   1      27.697  -4.140  18.118  0.00  0.00    -0.356 OA
BRANCH  34  35
ATOM     35  C   UNK d   1      26.864  -3.225  17.395  0.00  0.00     0.291 C 
ATOM     36  O   UNK d   1      25.920  -2.634  18.300  0.00  0.00    -0.351 OA
ATOM     37  C   UNK d   1      24.688  -2.187  17.728  0.00  0.00     0.152 C 
ATOM     38  C   UNK d   1      24.851  -1.786  16.258  0.00  0.00     0.178 C 
ATOM     39  C   UNK d   1      24.187  -1.038  18.598  0.00  0.00     0.042 C 
ATOM     40  C   UNK d   1      25.266  -3.021  15.443  0.00  0.00     0.183 C 
ATOM     41  C   UNK d   1      26.171  -3.979  16.238  0.00  0.00     0.204 C 
BRANCH  38  42
ATOM     42  O   UNK d   1      23.660  -1.250  15.680  0.00  0.00    -0.390 OA
ATOM     43  H   UNK d   1      23.583  -1.603  14.776  0.00  0.00     0.210 HD
ENDBRANCH  38  42
BRANCH  40  44
ATOM     44  O   UNK d   1      25.949  -2.578  14.250  0.00  0.00    -0.390 OA
ATOM     45  H   UNK d   1      25.571  -1.699  14.048  0.00  0.00     0.210 HD
ENDBRANCH  40  44
BRANCH  41  46
ATOM     46  O   UNK d   1      27.098  -4.614  15.345  0.00  0.00    -0.388 OA
ATOM     47  H   UNK d   1      27.351  -3.920  14.700  0.00  0.00     0.210 HD
ENDBRANCH  41  46
ENDBRANCH  34  35
ENDBRANCH  33  34
ENDBRANCH   2  33
BRANCH   4  48
ATOM     48  O   UNK d   1      27.271  -9.398  17.645  0.00  0.00    -0.390 OA
ATOM     49  H   UNK d   1      27.226  -8.854  16.837  0.00  0.00     0.210 HD
ENDBRANCH   4  48
BRANCH   3  50
ATOM     50  O   UNK d   1      27.997  -6.657  17.201  0.00  0.00    -0.390 OA
ATOM     51  H   UNK d   1      27.370  -6.179  16.627  0.00  0.00     0.210 HD
ENDBRANCH   3  50
TORSDOF 15
ENDMDL
